version 3
run MainNetwork-0-20240508-01:45:34-23996
attr configname MainNetwork
attr datetime 20240508-01:45:34
attr datetimef 20240508-014534
attr experiment MainNetwork
attr inifile omnetpp.ini
attr iterationvars ""
attr iterationvarsd ""
attr iterationvarsf ""
attr measurement ""
attr network WirelessA
attr processid 23996
attr repetition 0
attr replication #0
attr resultdir results
attr runnumber 0
attr seedset 0
config image-path ../../../inet4.5/images
config description "Energy model"
config extends Wireless07
config *.host*.wlan[0].radio.energyConsumer.typename StateBasedEpEnergyConsumer
config *.host*.wlan[0].radio.energyConsumer.offPowerConsumption 0mW
config *.host*.wlan[0].radio.energyConsumer.sleepPowerConsumption 1mW
config *.host*.wlan[0].radio.energyConsumer.switchingPowerConsumption 1mW
config *.host*.wlan[0].radio.energyConsumer.receiverIdlePowerConsumption 2mW
config *.host*.wlan[0].radio.energyConsumer.receiverBusyPowerConsumption 5mW
config *.host*.wlan[0].radio.energyConsumer.receiverReceivingPowerConsumption 10mW
config *.host*.wlan[0].radio.energyConsumer.transmitterIdlePowerConsumption 2mW
config *.host*.wlan[0].radio.energyConsumer.transmitterTransmittingPowerConsumption 100mW
config *.host*.energyStorage.typename IdealEpEnergyStorage
config *.host*.wlan[0].radio.displayInterferenceRange false
config *.hostR1.wlan[0].radio.displayCommunicationRange true
config *.visualizer.mediumVisualizer.displaySignals false
config *.hostR*.mobility.typename LinearMobility
config *.hostR*.mobility.speed 12mps
config *.hostR*.mobility.initialMovementHeading 270deg
config *.host*.wlan[0].queue.packetCapacity 10
config *.visualizer.mobilityVisualizer.displayVelocities true
config *.visualizer.mobilityVisualizer.displayMovementTrails true
config *.configurator.addStaticRoutes false
config *.host*.typename AodvRouter
config *.hostB.wlan[0].radio.displayCommunicationRange true
config *.visualizer.dataLinkVisualizer.packetFilter "\"AODV*\""
config description "Turning on ACKs in CSMA"
config extends Wireless06
config *.host*.wlan[0].mac.useAck true
config description "Using CSMA to better utilize the medium"
config extends Wireless05
config *.host*.wlan[0].typename WirelessInterface
config *.host*.wlan[0].radio.typename UnitDiskRadio
config *.host*.wlan[0].mac.typename CsmaCaMac
config *.host*.wlan[0].mac.ackTimeout 300us
config *.host*.wlan[0].queue.typename DropTailQueue
config *.host*.wlan[0].queue.packetCapacity -1
config description "Taking interference into account"
config extends Wireless04
config *.host*.wlan[0].radio.receiver.ignoreInterference false
config *.host*.wlan[0].radio.transmitter.interferenceRange 500m
config *.hostA.wlan[0].radio.displayInterferenceRange true
config *.visualizer.dataLinkVisualizer.packetFilter "\"\""
config description "Setting up static routing"
config extends Wireless03
config *.host*.forwarding true
config *.hostA.app[0].destAddresses "\"hostE\""
config *.hostE.numApps 1
config *.hostE.app[0].typename SummerUdpApp
config *.hostE.app[0].localPort 5000
config *.hostE.app[0].destPort 5000
config *.hostE.app[0].messageLength 1000B
config *.hostE.app[0].destAddresses "\"hostA\""
config *.hostB.app[0].typename SenderUdpApp
config *.hostB.app[0].destAddresses "\"hostE\""
config *.hostB.app[0].destPort 5000
config *.hostB.app[0].messageLength 1000B
config *.hostB.app[0].sendInterval exponential(12ms)
config *.hostB.app[0].packetName "\"Y-Data\""
config *.hostB.app[0].stopTime 2.0s
config *.hostB.app[0].varName "\"y\""
config *.configurator.config "xmldoc(\"config.xml\")"
config *.configurator.optimizeRoutes true
config *.host*.ipv4.routingTable.netmaskRoutes "\"\""
config *.visualizer.physicalLinkVisualizer.displayLinks true
config *.visualizer.dataLinkVisualizer.displayLinks true
config *.visualizer.networkRouteVisualizer.displayRoutes true
config *.visualizer.*LinkVisualizer.lineShift 0
config *.visualizer.networkRouteVisualizer.lineShift 0
config *.visualizer.networkRouteVisualizer.packetFilter "\"UDPData*\""
config description "Adding more nodes and decreasing the communication range"
config extends Wireless02
config *.host*.wlan[0].radio.transmitter.communicationRange 200m
config *.host*.wlan[0].radio.displayCommunicationRange true
config description "Setting up some animations"
config extends Wireless01
config *.hostA.wlan[0].radio.displayCommunicationRange true
config *.visualizer.sceneVisualizer.descriptionFigure "\"title\""
config *.visualizer.mediumVisualizer.displaySignals true
config *.visualizer.physicalLinkVisualizer.displayLinks true
config *.visualizer.physicalLinkVisualizer.packetFilter "\"UDPData*\""
config description "Two hosts communicating wirelessly"
config network WirelessA
config sim-time-limit 40s
config *.host*.ipv4.arp.typename GlobalArp
config *.hostA.numApps 1
config *.hostA.app[0].typename SenderUdpApp
config *.hostA.app[0].destAddresses "\"hostB\""
config *.hostA.app[0].destPort 5000
config *.hostA.app[0].messageLength 1000B
config *.hostA.app[0].sendInterval exponential(12ms)
config *.hostA.app[0].packetName "\"UDPData\""
config *.hostA.app[0].stopTime 2.0s
config *.hostA.app[0].varName "\"x\""
config *.hostB.numApps 1
config *.hostB.app[0].typename SummerUdpApp
config *.hostB.app[0].localPort 5000
config *.hostB.app[0].destPort 5000
config *.hostB.app[0].messageLength 1000B
config *.hostB.app[0].destAddresses "\"hostA\""
config *.host*.wlan[0].typename AckingWirelessInterface
config *.host*.wlan[0].mac.useAck false
config *.host*.wlan[0].mac.fullDuplex false
config *.host*.wlan[0].radio.transmitter.communicationRange 500m
config *.host*.wlan[0].radio.receiver.ignoreInterference true
config *.host*.wlan[0].mac.headerLength 23B
config *.host*.**.bitrate 1Mbps

vector 0 WirelessA.hostA.udp passedUpPk:vector(count) ETV
attr interpolationmode none
attr recordingmode vector(count)
attr source packetSentToUpper
attr title "packets passed up, count"
vector 1 WirelessA.hostA.udp droppedPkWrongPort:vector(count) ETV
attr interpolationmode none
attr recordingmode vector(count)
attr source packetDropReasonIsNoPortFound(packetDropped)
attr title "packets dropped (wrong port), count"
vector 2 WirelessA.hostA.udp droppedPkBadChecksum:vector(count) ETV
attr interpolationmode none
attr recordingmode vector(count)
attr source packetDropReasonIsIncorrectlyReceived(packetDropped)
attr title "packets dropped (checksum error), count"
vector 3 WirelessA.hostB.udp passedUpPk:vector(count) ETV
attr interpolationmode none
attr recordingmode vector(count)
attr source packetSentToUpper
attr title "packets passed up, count"
vector 4 WirelessA.hostB.udp droppedPkWrongPort:vector(count) ETV
attr interpolationmode none
attr recordingmode vector(count)
attr source packetDropReasonIsNoPortFound(packetDropped)
attr title "packets dropped (wrong port), count"
vector 5 WirelessA.hostB.udp droppedPkBadChecksum:vector(count) ETV
attr interpolationmode none
attr recordingmode vector(count)
attr source packetDropReasonIsIncorrectlyReceived(packetDropped)
attr title "packets dropped (checksum error), count"
vector 6 WirelessA.hostC.udp passedUpPk:vector(count) ETV
attr interpolationmode none
attr recordingmode vector(count)
attr source packetSentToUpper
attr title "packets passed up, count"
vector 7 WirelessA.hostC.udp droppedPkWrongPort:vector(count) ETV
attr interpolationmode none
attr recordingmode vector(count)
attr source packetDropReasonIsNoPortFound(packetDropped)
attr title "packets dropped (wrong port), count"
vector 8 WirelessA.hostC.udp droppedPkBadChecksum:vector(count) ETV
attr interpolationmode none
attr recordingmode vector(count)
attr source packetDropReasonIsIncorrectlyReceived(packetDropped)
attr title "packets dropped (checksum error), count"
vector 9 WirelessA.hostD.udp passedUpPk:vector(count) ETV
attr interpolationmode none
attr recordingmode vector(count)
attr source packetSentToUpper
attr title "packets passed up, count"
vector 10 WirelessA.hostD.udp droppedPkWrongPort:vector(count) ETV
attr interpolationmode none
attr recordingmode vector(count)
attr source packetDropReasonIsNoPortFound(packetDropped)
attr title "packets dropped (wrong port), count"
vector 11 WirelessA.hostD.udp droppedPkBadChecksum:vector(count) ETV
attr interpolationmode none
attr recordingmode vector(count)
attr source packetDropReasonIsIncorrectlyReceived(packetDropped)
attr title "packets dropped (checksum error), count"
vector 12 WirelessA.hostE.udp passedUpPk:vector(count) ETV
attr interpolationmode none
attr recordingmode vector(count)
attr source packetSentToUpper
attr title "packets passed up, count"
vector 13 WirelessA.hostE.udp droppedPkWrongPort:vector(count) ETV
attr interpolationmode none
attr recordingmode vector(count)
attr source packetDropReasonIsNoPortFound(packetDropped)
attr title "packets dropped (wrong port), count"
vector 14 WirelessA.hostE.udp droppedPkBadChecksum:vector(count) ETV
attr interpolationmode none
attr recordingmode vector(count)
attr source packetDropReasonIsIncorrectlyReceived(packetDropped)
attr title "packets dropped (checksum error), count"
vector 15 WirelessA.hostA.energyStorage powerConsumption:vector ETV
attr interpolationmode sample-hold
attr recordingmode vector
attr source powerConsumptionChanged
attr title "Power consumption"
attr unit W
vector 16 WirelessA.hostB.energyStorage powerConsumption:vector ETV
attr interpolationmode sample-hold
attr recordingmode vector
attr source powerConsumptionChanged
attr title "Power consumption"
attr unit W
vector 17 WirelessA.hostC.energyStorage powerConsumption:vector ETV
attr interpolationmode sample-hold
attr recordingmode vector
attr source powerConsumptionChanged
attr title "Power consumption"
attr unit W
vector 18 WirelessA.hostD.energyStorage powerConsumption:vector ETV
attr interpolationmode sample-hold
attr recordingmode vector
attr source powerConsumptionChanged
attr title "Power consumption"
attr unit W
vector 19 WirelessA.hostE.energyStorage powerConsumption:vector ETV
attr interpolationmode sample-hold
attr recordingmode vector
attr source powerConsumptionChanged
attr title "Power consumption"
attr unit W
vector 20 WirelessA.hostA.wlan[0].radio radioMode:vector ETV
attr interpolationmode sample-hold
attr recordingmode vector
attr source radioModeChanged
attr title "Radio mode"
vector 21 WirelessA.hostA.wlan[0].radio.energyConsumer powerConsumption:vector ETV
attr interpolationmode sample-hold
attr recordingmode vector
attr source powerConsumptionChanged
attr title "Power consumption"
attr unit W
vector 22 WirelessA.hostB.wlan[0].radio radioMode:vector ETV
attr interpolationmode sample-hold
attr recordingmode vector
attr source radioModeChanged
attr title "Radio mode"
vector 23 WirelessA.hostB.wlan[0].radio.energyConsumer powerConsumption:vector ETV
attr interpolationmode sample-hold
attr recordingmode vector
attr source powerConsumptionChanged
attr title "Power consumption"
attr unit W
vector 24 WirelessA.hostC.wlan[0].radio radioMode:vector ETV
attr interpolationmode sample-hold
attr recordingmode vector
attr source radioModeChanged
attr title "Radio mode"
vector 25 WirelessA.hostC.wlan[0].radio.energyConsumer powerConsumption:vector ETV
attr interpolationmode sample-hold
attr recordingmode vector
attr source powerConsumptionChanged
attr title "Power consumption"
attr unit W
vector 26 WirelessA.hostD.wlan[0].radio radioMode:vector ETV
attr interpolationmode sample-hold
attr recordingmode vector
attr source radioModeChanged
attr title "Radio mode"
vector 27 WirelessA.hostD.wlan[0].radio.energyConsumer powerConsumption:vector ETV
attr interpolationmode sample-hold
attr recordingmode vector
attr source powerConsumptionChanged
attr title "Power consumption"
attr unit W
vector 28 WirelessA.hostE.wlan[0].radio radioMode:vector ETV
attr interpolationmode sample-hold
attr recordingmode vector
attr source radioModeChanged
attr title "Radio mode"
vector 29 WirelessA.hostE.wlan[0].radio.energyConsumer powerConsumption:vector ETV
attr interpolationmode sample-hold
attr recordingmode vector
attr source powerConsumptionChanged
attr title "Power consumption"
attr unit W
vector 30 WirelessA.hostA.wlan[0].radio receptionState:vector ETV
attr interpolationmode sample-hold
attr recordingmode vector
attr source receptionStateChanged
attr title "Radio reception state"
vector 31 WirelessA.hostB.wlan[0].radio receptionState:vector ETV
attr interpolationmode sample-hold
attr recordingmode vector
attr source receptionStateChanged
attr title "Radio reception state"
vector 32 WirelessA.hostC.wlan[0].radio receptionState:vector ETV
attr interpolationmode sample-hold
attr recordingmode vector
attr source receptionStateChanged
attr title "Radio reception state"
vector 33 WirelessA.hostD.wlan[0].radio receptionState:vector ETV
attr interpolationmode sample-hold
attr recordingmode vector
attr source receptionStateChanged
attr title "Radio reception state"
vector 34 WirelessA.hostE.wlan[0].radio receptionState:vector ETV
attr interpolationmode sample-hold
attr recordingmode vector
attr source receptionStateChanged
attr title "Radio reception state"
vector 35 WirelessA.hostA.app[0] packetSent:vector(packetBytes) ETV
attr interpolationmode none
attr recordingmode vector(packetBytes)
attr source packetSent
attr title "packets sent, packetBytes"
vector 36 WirelessA.hostA.udp packetSent:vector(packetBytes) ETV
attr interpolationmode none
attr recordingmode vector(packetBytes)
attr source packetSent
attr title "packets sent, packetBytes"
vector 37 WirelessA.hostB.app[0] packetSent:vector(packetBytes) ETV
attr interpolationmode none
attr recordingmode vector(packetBytes)
attr source packetSent
attr title "packets sent, packetBytes"
vector 38 WirelessA.hostB.udp packetSent:vector(packetBytes) ETV
attr interpolationmode none
attr recordingmode vector(packetBytes)
attr source packetSent
attr title "packets sent, packetBytes"
vector 39 WirelessA.hostA.wlan[0].queue incomingPacketLengths:vector ETV
attr interpolationmode none
attr recordingmode vector
attr source packetLength(packetPushStarted)
attr title "incoming packet lengths"
attr unit b
vector 40 WirelessA.hostA.wlan[0].queue queueingTime:vector ETV
attr interpolationmode none
attr recordingmode vector
attr source queueingTime(packetPulled)
attr title "queueing times"
attr unit s
vector 41 WirelessA.hostA.wlan[0].queue outgoingPacketLengths:vector ETV
attr interpolationmode none
attr recordingmode vector
attr source packetLength(packetPulled)
attr title "outgoing packet lengths"
attr unit b
vector 42 WirelessA.hostA.wlan[0].queue queueLength:vector ETV
attr autoWarmupFilter false
attr interpolationmode sample-hold
attr recordingmode vector
attr source "warmup(atomic(constant0(packetPushEnded) + count(packetPushStarted) - count(packetPulled) - count(packetRemoved) - count(packetDropped)))"
attr title "queue length"
attr unit pk
vector 43 WirelessA.hostA.wlan[0].queue queueBitLength:vector ETV
attr autoWarmupFilter false
attr interpolationmode sample-hold
attr recordingmode vector
attr source "warmup(atomic(constant0(packetPushEnded) + sum(packetLength(packetPushStarted)) - sum(packetLength(packetPulled)) - sum(packetLength(packetRemoved)) - sum(packetLength(packetDropped))))"
attr title "queue bit length"
attr unit b
vector 44 WirelessA.hostA.energyStorage residualEnergyCapacity:vector ETV
attr interpolationmode linear
attr recordingmode vector
attr source residualEnergyCapacityChanged
attr title "Residual energy capacity"
attr unit J
vector 45 WirelessA.hostA.wlan[0].radio transmissionState:vector ETV
attr interpolationmode sample-hold
attr recordingmode vector
attr source transmissionStateChanged
attr title "Radio transmission state"
vector 46 WirelessA.hostC.energyStorage residualEnergyCapacity:vector ETV
attr interpolationmode linear
attr recordingmode vector
attr source residualEnergyCapacityChanged
attr title "Residual energy capacity"
attr unit J
vector 47 WirelessA.hostB.energyStorage residualEnergyCapacity:vector ETV
attr interpolationmode linear
attr recordingmode vector
attr source residualEnergyCapacityChanged
attr title "Residual energy capacity"
attr unit J
vector 48 WirelessA.hostD.energyStorage residualEnergyCapacity:vector ETV
attr interpolationmode linear
attr recordingmode vector
attr source residualEnergyCapacityChanged
attr title "Residual energy capacity"
attr unit J
vector 49 WirelessA.hostE.energyStorage residualEnergyCapacity:vector ETV
attr interpolationmode linear
attr recordingmode vector
attr source residualEnergyCapacityChanged
attr title "Residual energy capacity"
attr unit J
vector 50 WirelessA.hostC.udp packetReceived:vector(packetBytes) ETV
attr interpolationmode none
attr recordingmode vector(packetBytes)
attr source packetReceived
attr title "packets received, packetBytes"
vector 51 WirelessA.hostB.wlan[0].queue incomingPacketLengths:vector ETV
attr interpolationmode none
attr recordingmode vector
attr source packetLength(packetPushStarted)
attr title "incoming packet lengths"
attr unit b
vector 52 WirelessA.hostB.wlan[0].queue queueingTime:vector ETV
attr interpolationmode none
attr recordingmode vector
attr source queueingTime(packetPulled)
attr title "queueing times"
attr unit s
vector 53 WirelessA.hostB.wlan[0].queue outgoingPacketLengths:vector ETV
attr interpolationmode none
attr recordingmode vector
attr source packetLength(packetPulled)
attr title "outgoing packet lengths"
attr unit b
vector 54 WirelessA.hostB.wlan[0].queue queueLength:vector ETV
attr autoWarmupFilter false
attr interpolationmode sample-hold
attr recordingmode vector
attr source "warmup(atomic(constant0(packetPushEnded) + count(packetPushStarted) - count(packetPulled) - count(packetRemoved) - count(packetDropped)))"
attr title "queue length"
attr unit pk
vector 55 WirelessA.hostB.wlan[0].queue queueBitLength:vector ETV
attr autoWarmupFilter false
attr interpolationmode sample-hold
attr recordingmode vector
attr source "warmup(atomic(constant0(packetPushEnded) + sum(packetLength(packetPushStarted)) - sum(packetLength(packetPulled)) - sum(packetLength(packetRemoved)) - sum(packetLength(packetDropped))))"
attr title "queue bit length"
attr unit b
vector 56 WirelessA.hostB.wlan[0].radio transmissionState:vector ETV
attr interpolationmode sample-hold
attr recordingmode vector
attr source transmissionStateChanged
attr title "Radio transmission state"
vector 57 WirelessA.hostC.udp packetSent:vector(packetBytes) ETV
attr interpolationmode none
attr recordingmode vector(packetBytes)
attr source packetSent
attr title "packets sent, packetBytes"
vector 58 WirelessA.hostC.wlan[0].queue incomingPacketLengths:vector ETV
attr interpolationmode none
attr recordingmode vector
attr source packetLength(packetPushStarted)
attr title "incoming packet lengths"
attr unit b
vector 59 WirelessA.hostC.wlan[0].queue queueingTime:vector ETV
attr interpolationmode none
attr recordingmode vector
attr source queueingTime(packetPulled)
attr title "queueing times"
attr unit s
vector 60 WirelessA.hostC.wlan[0].queue outgoingPacketLengths:vector ETV
attr interpolationmode none
attr recordingmode vector
attr source packetLength(packetPulled)
attr title "outgoing packet lengths"
attr unit b
vector 61 WirelessA.hostC.wlan[0].queue queueLength:vector ETV
attr autoWarmupFilter false
attr interpolationmode sample-hold
attr recordingmode vector
attr source "warmup(atomic(constant0(packetPushEnded) + count(packetPushStarted) - count(packetPulled) - count(packetRemoved) - count(packetDropped)))"
attr title "queue length"
attr unit pk
vector 62 WirelessA.hostC.wlan[0].queue queueBitLength:vector ETV
attr autoWarmupFilter false
attr interpolationmode sample-hold
attr recordingmode vector
attr source "warmup(atomic(constant0(packetPushEnded) + sum(packetLength(packetPushStarted)) - sum(packetLength(packetPulled)) - sum(packetLength(packetRemoved)) - sum(packetLength(packetDropped))))"
attr title "queue bit length"
attr unit b
vector 63 WirelessA.hostC.wlan[0].radio transmissionState:vector ETV
attr interpolationmode sample-hold
attr recordingmode vector
attr source transmissionStateChanged
attr title "Radio transmission state"
vector 64 WirelessA.hostD.udp packetReceived:vector(packetBytes) ETV
attr interpolationmode none
attr recordingmode vector(packetBytes)
attr source packetReceived
attr title "packets received, packetBytes"
vector 65 WirelessA.hostB.udp packetReceived:vector(packetBytes) ETV
attr interpolationmode none
attr recordingmode vector(packetBytes)
attr source packetReceived
attr title "packets received, packetBytes"
vector 66 WirelessA.hostA.udp packetReceived:vector(packetBytes) ETV
attr interpolationmode none
attr recordingmode vector(packetBytes)
attr source packetReceived
attr title "packets received, packetBytes"
vector 67 WirelessA.hostB.wlan[0].queue incomingDataRate:vector ETV
attr interpolationmode linear
attr recordingmode vector
attr source throughput(packetPushStarted)
attr title "incoming datarate"
attr unit bps
vector 68 WirelessA.hostB.wlan[0].queue outgoingDataRate:vector ETV
attr interpolationmode linear
attr recordingmode vector
attr source throughput(packetPulled)
attr title "outgoing datarate"
attr unit bps
vector 69 WirelessA.hostC.wlan[0].queue incomingDataRate:vector ETV
attr interpolationmode linear
attr recordingmode vector
attr source throughput(packetPushStarted)
attr title "incoming datarate"
attr unit bps
vector 70 WirelessA.hostC.wlan[0].queue outgoingDataRate:vector ETV
attr interpolationmode linear
attr recordingmode vector
attr source throughput(packetPulled)
attr title "outgoing datarate"
attr unit bps
vector 71 WirelessA.hostD.udp packetSent:vector(packetBytes) ETV
attr interpolationmode none
attr recordingmode vector(packetBytes)
attr source packetSent
attr title "packets sent, packetBytes"
vector 72 WirelessA.hostD.wlan[0].queue incomingPacketLengths:vector ETV
attr interpolationmode none
attr recordingmode vector
attr source packetLength(packetPushStarted)
attr title "incoming packet lengths"
attr unit b
vector 73 WirelessA.hostD.wlan[0].queue incomingDataRate:vector ETV
attr interpolationmode linear
attr recordingmode vector
attr source throughput(packetPushStarted)
attr title "incoming datarate"
attr unit bps
vector 74 WirelessA.hostD.wlan[0].queue queueingTime:vector ETV
attr interpolationmode none
attr recordingmode vector
attr source queueingTime(packetPulled)
attr title "queueing times"
attr unit s
vector 75 WirelessA.hostD.wlan[0].queue outgoingPacketLengths:vector ETV
attr interpolationmode none
attr recordingmode vector
attr source packetLength(packetPulled)
attr title "outgoing packet lengths"
attr unit b
vector 76 WirelessA.hostD.wlan[0].queue outgoingDataRate:vector ETV
attr interpolationmode linear
attr recordingmode vector
attr source throughput(packetPulled)
attr title "outgoing datarate"
attr unit bps
vector 77 WirelessA.hostD.wlan[0].queue queueLength:vector ETV
attr autoWarmupFilter false
attr interpolationmode sample-hold
attr recordingmode vector
attr source "warmup(atomic(constant0(packetPushEnded) + count(packetPushStarted) - count(packetPulled) - count(packetRemoved) - count(packetDropped)))"
attr title "queue length"
attr unit pk
vector 78 WirelessA.hostD.wlan[0].queue queueBitLength:vector ETV
attr autoWarmupFilter false
attr interpolationmode sample-hold
attr recordingmode vector
attr source "warmup(atomic(constant0(packetPushEnded) + sum(packetLength(packetPushStarted)) - sum(packetLength(packetPulled)) - sum(packetLength(packetRemoved)) - sum(packetLength(packetDropped))))"
attr title "queue bit length"
attr unit b
vector 79 WirelessA.hostD.wlan[0].radio transmissionState:vector ETV
attr interpolationmode sample-hold
attr recordingmode vector
attr source transmissionStateChanged
attr title "Radio transmission state"
vector 80 WirelessA.hostA.wlan[0].queue incomingDataRate:vector ETV
attr interpolationmode linear
attr recordingmode vector
attr source throughput(packetPushStarted)
attr title "incoming datarate"
attr unit bps
vector 81 WirelessA.hostA.wlan[0].queue outgoingDataRate:vector ETV
attr interpolationmode linear
attr recordingmode vector
attr source throughput(packetPulled)
attr title "outgoing datarate"
attr unit bps
vector 82 WirelessA.hostE.udp packetReceived:vector(packetBytes) ETV
attr interpolationmode none
attr recordingmode vector(packetBytes)
attr source packetReceived
attr title "packets received, packetBytes"
vector 83 WirelessA.hostE.udp packetSent:vector(packetBytes) ETV
attr interpolationmode none
attr recordingmode vector(packetBytes)
attr source packetSent
attr title "packets sent, packetBytes"
vector 84 WirelessA.hostE.wlan[0].queue incomingPacketLengths:vector ETV
attr interpolationmode none
attr recordingmode vector
attr source packetLength(packetPushStarted)
attr title "incoming packet lengths"
attr unit b
vector 85 WirelessA.hostE.wlan[0].queue incomingDataRate:vector ETV
attr interpolationmode linear
attr recordingmode vector
attr source throughput(packetPushStarted)
attr title "incoming datarate"
attr unit bps
vector 86 WirelessA.hostE.wlan[0].queue queueingTime:vector ETV
attr interpolationmode none
attr recordingmode vector
attr source queueingTime(packetPulled)
attr title "queueing times"
attr unit s
vector 87 WirelessA.hostE.wlan[0].queue outgoingPacketLengths:vector ETV
attr interpolationmode none
attr recordingmode vector
attr source packetLength(packetPulled)
attr title "outgoing packet lengths"
attr unit b
vector 88 WirelessA.hostE.wlan[0].queue outgoingDataRate:vector ETV
attr interpolationmode linear
attr recordingmode vector
attr source throughput(packetPulled)
attr title "outgoing datarate"
attr unit bps
vector 89 WirelessA.hostE.wlan[0].queue queueLength:vector ETV
attr autoWarmupFilter false
attr interpolationmode sample-hold
attr recordingmode vector
attr source "warmup(atomic(constant0(packetPushEnded) + count(packetPushStarted) - count(packetPulled) - count(packetRemoved) - count(packetDropped)))"
attr title "queue length"
attr unit pk
vector 90 WirelessA.hostE.wlan[0].queue queueBitLength:vector ETV
attr autoWarmupFilter false
attr interpolationmode sample-hold
attr recordingmode vector
attr source "warmup(atomic(constant0(packetPushEnded) + sum(packetLength(packetPushStarted)) - sum(packetLength(packetPulled)) - sum(packetLength(packetRemoved)) - sum(packetLength(packetDropped))))"
attr title "queue bit length"
attr unit b
vector 91 WirelessA.hostE.wlan[0].radio transmissionState:vector ETV
attr interpolationmode sample-hold
attr recordingmode vector
attr source transmissionStateChanged
attr title "Radio transmission state"
vector 92 WirelessA.hostE.wlan[0].mac packetDropNotAddressedToUs:vector(packetBytes) ETV
attr interpolationmode none
attr recordingmode vector(packetBytes)
attr source packetDropReasonIsNotAddressedToUs(packetDropped)
attr title "packet drop: not addressed to us, packetBytes"
vector 93 WirelessA.hostD.wlan[0].mac packetDropNotAddressedToUs:vector(packetBytes) ETV
attr interpolationmode none
attr recordingmode vector(packetBytes)
attr source packetDropReasonIsNotAddressedToUs(packetDropped)
attr title "packet drop: not addressed to us, packetBytes"
vector 94 WirelessA.hostA.wlan[0].mac packetDropNotAddressedToUs:vector(packetBytes) ETV
attr interpolationmode none
attr recordingmode vector(packetBytes)
attr source packetDropReasonIsNotAddressedToUs(packetDropped)
attr title "packet drop: not addressed to us, packetBytes"
vector 95 WirelessA.hostB.wlan[0].mac packetDropNotAddressedToUs:vector(packetBytes) ETV
attr interpolationmode none
attr recordingmode vector(packetBytes)
attr source packetDropReasonIsNotAddressedToUs(packetDropped)
attr title "packet drop: not addressed to us, packetBytes"
vector 96 WirelessA.hostC.wlan[0].mac packetDropNotAddressedToUs:vector(packetBytes) ETV
attr interpolationmode none
attr recordingmode vector(packetBytes)
attr source packetDropReasonIsNotAddressedToUs(packetDropped)
attr title "packet drop: not addressed to us, packetBytes"
vector 97 WirelessA.hostE.app[0] packetSent:vector(packetBytes) ETV
attr interpolationmode none
attr recordingmode vector(packetBytes)
attr source packetSent
attr title "Packets Sent, packetBytes"
vector 98 WirelessA.hostA.app[0] throughput:vector ETV
attr recordingmode vector
attr source throughput(packetReceived)
attr title throughput
attr unit bps
vector 99 WirelessA.hostB.app[0] throughput:vector ETV
attr recordingmode vector
attr source throughput(packetReceived)
attr title throughput
attr unit bps
0	0	0	0
0	86	0.028914117234	1
0	114	0.031283561288	2
0	168	0.345455540081	3
0	400	0.356009735327	4
0	520	0.361417108069	5
0	868	0.380042192746	6
1	0	0	0
2	0	0	0
3	0	0	0
3	81	0.028914077412	1
3	109	0.031283521466	2
3	163	0.345455500259	3
3	326	0.353692590675	4
3	395	0.356009695505	5
3	717	0.370744202869	6
4	0	0	0
5	0	0	0
6	0	0	0
6	36	0.025151050389	1
6	56	0.027564746232	2
6	138	0.343841301359	3
6	193	0.346715014914	4
6	252	0.349091098724	5
6	271	0.35009799806	6
6	300	0.351227182534	7
6	418	0.357136118164	8
7	0	0	0
8	0	0	0
9	0	0	0
9	76	0.028914012534	1
9	104	0.031283456588	2
9	158	0.345455435381	3
9	218	0.347561502451	4
9	387	0.356009630627	5
9	747	0.372194137898	6
10	0	0	0
11	0	0	0
12	0	0	0
12	194	0.346715014914	1
12	482	0.359433093238	2
12	610	0.36434267538	3
12	771	0.373340625435	4
13	0	0	0
14	0	0	0
15	0	0	0
15	0	0	0
15	0	0	0
15	0	0	0
15	0	0	0.002
15	26	0.024422458152	0
15	26	0.024422458152	0
15	26	0.024422458152	0.002
15	27	0.024422458152	0
15	27	0.024422458152	0.1
15	32	0.025150458152	0.002
15	32	0.025150458152	0
15	32	0.025150458152	0.002
15	32	0.025150458152	0.002
15	32	0.025150458152	0.002
15	49	0.026836946978	0.005
15	58	0.027564946978	0.002
15	70	0.028186117234	0
15	70	0.028186117234	0.01
15	83	0.028914117234	0.002
15	98	0.030555561288	0.01
15	111	0.031283561288	0.002
15	131	0.343113502105	0.005
15	131	0.343113502105	0.005
15	140	0.343841502105	0.002
15	152	0.344727540081	0
15	152	0.344727540081	0.01
15	165	0.345455540081	0.002
15	181	0.345987531413	0.005
15	181	0.345987531413	0.005
15	201	0.346715531413	0.002
15	209	0.346866478067	0.005
15	222	0.347562478067	0.002
15	228	0.347572506487	0.005
15	235	0.347812506487	0.002
15	242	0.348362506487	0
15	242	0.348362506487	0
15	242	0.348362506487	0.002
15	243	0.348362506487	0
15	243	0.348362506487	0.1
15	248	0.349090506487	0.002
15	248	0.349090506487	0
15	248	0.349090506487	0.002
15	248	0.349090506487	0.002
15	248	0.349090506487	0.002
15	264	0.349402514559	0.005
15	274	0.350098514559	0.002
15	279	0.350108590297	0
15	279	0.350108590297	0.01
15	286	0.350348590297	0.002
15	290	0.350498590297	0
15	290	0.350498590297	0
15	290	0.350498590297	0.002
15	290	0.350498590297	0.002
15	291	0.350498590297	0
15	291	0.350498590297	0.1
15	296	0.351226590297	0.002
15	296	0.351226590297	0
15	296	0.351226590297	0.002
15	296	0.351226590297	0.002
15	296	0.351226590297	0.002
15	314	0.352996630497	0
15	314	0.352996630497	0.01
15	329	0.353692630497	0.002
15	335	0.353703343836	0.005
15	335	0.353703343836	0.005
15	342	0.353943343836	0.002
15	350	0.354333343836	0.005
15	358	0.354941343836	0.002
15	365	0.354951735327	0
15	365	0.354951735327	0.01
15	372	0.355191735327	0.002
15	380	0.355281735327	0.01
15	397	0.356009735327	0.002
15	410	0.356440634663	0.005
15	410	0.356440634663	0.005
15	421	0.357136634663	0.002
15	426	0.357146710401	0
15	426	0.357146710401	0.01
15	433	0.357386710401	0.002
15	442	0.357636710401	0.01
15	452	0.358244710401	0.002
15	460	0.358255609737	0.005
15	460	0.358255609737	0.005
15	467	0.358495609737	0.002
15	474	0.358825609737	0.005
15	485	0.359433609737	0.002
15	491	0.359444556391	0.005
15	497	0.359684556391	0.002
15	509	0.360721108069	0
15	509	0.360721108069	0.01
15	517	0.361417108069	0.002
15	524	0.361427108069	0
15	524	0.361427108069	0
15	524	0.361427108069	0.002
15	524	0.361427108069	0.002
15	525	0.361427108069	0
15	525	0.361427108069	0.1
15	530	0.361667108069	0.002
15	530	0.361667108069	0
15	530	0.361667108069	0.002
15	530	0.361667108069	0.002
15	530	0.361667108069	0.002
15	537	0.361717108069	0
15	537	0.361717108069	0
15	537	0.361717108069	0.002
15	538	0.361717108069	0
15	538	0.361717108069	0.1
15	543	0.362325108069	0.002
15	543	0.362325108069	0
15	543	0.362325108069	0.002
15	543	0.362325108069	0.002
15	543	0.362325108069	0.002
15	555	0.362336292543	0
15	555	0.362336292543	0.01
15	562	0.362576292543	0.002
15	570	0.362646292543	0.01
15	579	0.363254292543	0.002
15	587	0.363265191879	0.005
15	587	0.363265191879	0.005
15	594	0.363505191879	0.002
15	602	0.363735191879	0.005
15	618	0.364343191879	0.002
15	624	0.364354138533	0.005
15	630	0.364594138533	0.002
15	639	0.365264138533	0.005
15	648	0.366824138533	0.002
15	654	0.366834166953	0.005
15	665	0.367074166953	0.002
15	673	0.367124166953	0.005
15	686	0.368684166953	0.002
15	691	0.368694242691	0
15	691	0.368694242691	0.01
15	698	0.368934242691	0.002
15	707	0.369184242691	0.01
15	719	0.370744242691	0.002
15	725	0.37075495603	0.005
15	725	0.37075495603	0.005
15	731	0.37099495603	0.002
15	741	0.371467113514	0.005
15	754	0.372195113514	0.002
15	763	0.372645141934	0.005
15	775	0.373341141934	0.002
15	781	0.373352088588	0.005
15	788	0.373592088588	0.002
15	795	0.374102088588	0.005
15	805	0.375662088588	0.002
15	811	0.375672117008	0.005
15	818	0.375912117008	0.002
15	825	0.376022117008	0.005
15	836	0.377582117008	0.002
15	841	0.377592192746	0
15	841	0.377592192746	0.01
15	848	0.377832192746	0.002
15	856	0.378482192746	0.01
15	865	0.380042192746	0.002
15	871	0.380052192746	0
15	871	0.380052192746	0
15	871	0.380052192746	0.002
15	871	0.380052192746	0.002
15	872	0.380052192746	0
15	872	0.380052192746	0.1
15	877	0.380292192746	0.002
15	877	0.380292192746	0
15	877	0.380292192746	0.002
15	877	0.380292192746	0.002
15	877	0.380292192746	0.002
16	0	0	0
16	0	0	0
16	0	0	0
16	0	0	0
16	0	0	0.002
16	29	0.024423211313	0.005
16	38	0.025151211313	0.002
16	46	0.026836193817	0
16	46	0.026836193817	0
16	46	0.026836193817	0.002
16	47	0.026836193817	0
16	47	0.026836193817	0.1
16	52	0.027564193817	0.002
16	52	0.027564193817	0
16	52	0.027564193817	0.002
16	52	0.027564193817	0.002
16	52	0.027564193817	0.002
16	69	0.028186077412	0
16	69	0.028186077412	0.01
16	78	0.028914077412	0.002
16	97	0.030555521466	0.01
16	106	0.031283521466	0.002
16	128	0.343112748944	0
16	128	0.343112748944	0
16	128	0.343112748944	0.002
16	128	0.343112748944	0.002
16	129	0.343112748944	0
16	129	0.343112748944	0.1
16	134	0.343840748944	0.002
16	134	0.343840748944	0
16	134	0.343840748944	0.002
16	134	0.343840748944	0.002
16	134	0.343840748944	0.002
16	151	0.344727500259	0
16	151	0.344727500259	0.01
16	160	0.345455500259	0.002
16	180	0.345987508451	0.005
16	180	0.345987508451	0.005
16	200	0.346715508451	0.002
16	208	0.346866462406	0.005
16	221	0.347562462406	0.002
16	227	0.347572483525	0.005
16	234	0.347812483525	0.002
16	245	0.348363259648	0.005
16	254	0.349091259648	0.002
16	263	0.349402491597	0.005
16	273	0.350098491597	0.002
16	278	0.350108550475	0
16	278	0.350108550475	0.01
16	284	0.350348550475	0.002
16	293	0.350499343458	0.005
16	293	0.350499343458	0.005
16	302	0.351227343458	0.002
16	313	0.352996590675	0
16	313	0.352996590675	0.01
16	323	0.353692590675	0.002
16	332	0.353702590675	0
16	332	0.353702590675	0
16	332	0.353702590675	0.002
16	332	0.353702590675	0.002
16	333	0.353702590675	0
16	333	0.353702590675	0.1
16	339	0.353942590675	0.002
16	339	0.353942590675	0
16	339	0.353942590675	0.002
16	339	0.353942590675	0.002
16	339	0.353942590675	0.002
16	347	0.354332590675	0
16	347	0.354332590675	0
16	347	0.354332590675	0.002
16	348	0.354332590675	0
16	348	0.354332590675	0.1
16	353	0.354940590675	0.002
16	353	0.354940590675	0
16	353	0.354940590675	0.002
16	353	0.354940590675	0.002
16	353	0.354940590675	0.002
16	364	0.354951695505	0
16	364	0.354951695505	0.01
16	370	0.355191695505	0.002
16	379	0.355281695505	0.01
16	392	0.356009695505	0.002
16	409	0.356440611701	0.005
16	409	0.356440611701	0.005
16	420	0.357136611701	0.002
16	425	0.357146670579	0
16	425	0.357146670579	0.01
16	431	0.357386670579	0.002
16	441	0.357636670579	0.01
16	450	0.358244670579	0.002
16	459	0.358255586775	0.005
16	459	0.358255586775	0.005
16	466	0.358495586775	0.002
16	473	0.358825586775	0.005
16	484	0.359433586775	0.002
16	490	0.35944454073	0.005
16	496	0.35968454073	0.002
16	508	0.360721068247	0
16	508	0.360721068247	0.01
16	515	0.361417068247	0.002
16	527	0.36142786123	0.005
16	527	0.36142786123	0.005
16	533	0.36166786123	0.002
16	540	0.36171786123	0.005
16	548	0.36232586123	0.002
16	554	0.362336252721	0
16	554	0.362336252721	0.01
16	560	0.362576252721	0.002
16	569	0.362646252721	0.01
16	577	0.363254252721	0.002
16	586	0.363265168917	0.005
16	586	0.363265168917	0.005
16	593	0.363505168917	0.002
16	601	0.363735168917	0.005
16	617	0.364343168917	0.002
16	623	0.364354122872	0.005
16	629	0.364594122872	0.002
16	638	0.365264122872	0.005
16	647	0.366824122872	0.002
16	653	0.366834143991	0.005
16	664	0.367074143991	0.002
16	672	0.367124143991	0.005
16	685	0.368684143991	0.002
16	690	0.368694202869	0
16	690	0.368694202869	0.01
16	696	0.368934202869	0.002
16	706	0.369184202869	0.01
16	714	0.370744202869	0.002
16	722	0.370754202869	0
16	722	0.370754202869	0
16	722	0.370754202869	0.002
16	722	0.370754202869	0.002
16	723	0.370754202869	0
16	723	0.370754202869	0.1
16	728	0.370994202869	0.002
16	728	0.370994202869	0
16	728	0.370994202869	0.002
16	728	0.370994202869	0.002
16	728	0.370994202869	0.002
16	740	0.371467097853	0.005
16	753	0.372195097853	0.002
16	762	0.372645118972	0.005
16	774	0.373341118972	0.002
16	780	0.373352072927	0.005
16	787	0.373592072927	0.002
16	794	0.374102072927	0.005
16	804	0.375662072927	0.002
16	810	0.375672094046	0.005
16	817	0.375912094046	0.002
16	824	0.376022094046	0.005
16	835	0.377582094046	0.002
16	840	0.377592152924	0
16	840	0.377592152924	0.01
16	846	0.377832152924	0.002
16	855	0.378482152924	0.01
16	863	0.380042152924	0.002
16	874	0.380052945907	0.005
16	874	0.380052945907	0.005
16	880	0.380292945907	0.002
17	0	0	0
17	0	0	0
17	0	0	0
17	0	0	0
17	0	0	0.002
17	28	0.024423050389	0
17	28	0.024423050389	0.01
17	33	0.025151050389	0.002
17	48	0.026836746232	0.01
17	53	0.027564746232	0.002
17	66	0.028185524997	0
17	66	0.028185524997	0
17	66	0.028185524997	0.002
17	66	0.028185524997	0.002
17	67	0.028185524997	0
17	67	0.028185524997	0.1
17	72	0.028913524997	0.002
17	72	0.028913524997	0
17	72	0.028913524997	0.002
17	72	0.028913524997	0.002
17	72	0.028913524997	0.002
17	94	0.030554969051	0
17	94	0.030554969051	0
17	94	0.030554969051	0.002
17	95	0.030554969051	0
17	95	0.030554969051	0.1
17	100	0.031282969051	0.002
17	100	0.031282969051	0
17	100	0.031282969051	0.002
17	100	0.031282969051	0.002
17	100	0.031282969051	0.002
17	130	0.343113301359	0
17	130	0.343113301359	0.01
17	135	0.343841301359	0.002
17	148	0.344726947844	0
17	148	0.344726947844	0
17	148	0.344726947844	0.002
17	148	0.344726947844	0.002
17	149	0.344726947844	0
17	149	0.344726947844	0.1
17	154	0.345454947844	0.002
17	154	0.345454947844	0
17	154	0.345454947844	0.002
17	154	0.345454947844	0.002
17	154	0.345454947844	0.002
17	178	0.345987014914	0
17	178	0.345987014914	0.01
17	187	0.346715014914	0.002
17	207	0.346865989989	0.005
17	207	0.346865989989	0.005
17	220	0.347561989989	0.002
17	225	0.347571989988	0
17	225	0.347571989988	0.01
17	230	0.347811989988	0.002
17	244	0.348363098724	0.01
17	249	0.349091098724	0.002
17	261	0.34940199806	0.01
17	266	0.35009799806	0.002
17	275	0.35010799806	0
17	275	0.35010799806	0
17	275	0.35010799806	0.002
17	275	0.35010799806	0.002
17	276	0.35010799806	0
17	276	0.35010799806	0.1
17	281	0.35034799806	0.002
17	281	0.35034799806	0
17	281	0.35034799806	0.002
17	281	0.35034799806	0.002
17	281	0.35034799806	0.002
17	292	0.350499182534	0
17	292	0.350499182534	0.01
17	297	0.351227182534	0.002
17	310	0.35299603826	0
17	310	0.35299603826	0
17	310	0.35299603826	0.002
17	310	0.35299603826	0.002
17	311	0.35299603826	0
17	311	0.35299603826	0.1
17	320	0.35369203826	0.002
17	320	0.35369203826	0
17	320	0.35369203826	0.002
17	320	0.35369203826	0.002
17	320	0.35369203826	0.002
17	334	0.35370314309	0
17	334	0.35370314309	0.01
17	340	0.35394314309	0.002
17	349	0.35433314309	0.01
17	354	0.35494114309	0.002
17	361	0.35495114309	0
17	361	0.35495114309	0
17	361	0.35495114309	0.002
17	361	0.35495114309	0.002
17	362	0.35495114309	0
17	362	0.35495114309	0.1
17	367	0.35519114309	0.002
17	367	0.35519114309	0
17	367	0.35519114309	0.002
17	367	0.35519114309	0.002
17	367	0.35519114309	0.002
17	376	0.35528114309	0
17	376	0.35528114309	0
17	376	0.35528114309	0.002
17	377	0.35528114309	0
17	377	0.35528114309	0.1
17	383	0.35600914309	0.002
17	383	0.35600914309	0
17	383	0.35600914309	0.002
17	383	0.35600914309	0.002
17	383	0.35600914309	0.002
17	407	0.356440118164	0
17	407	0.356440118164	0.01
17	413	0.357136118164	0.002
17	422	0.357146118164	0
17	422	0.357146118164	0
17	422	0.357146118164	0.002
17	422	0.357146118164	0.002
17	423	0.357146118164	0
17	423	0.357146118164	0.1
17	428	0.357386118164	0.002
17	428	0.357386118164	0
17	428	0.357386118164	0.002
17	428	0.357386118164	0.002
17	428	0.357386118164	0.002
17	438	0.357636118164	0
17	438	0.357636118164	0
17	438	0.357636118164	0.002
17	439	0.357636118164	0
17	439	0.357636118164	0.1
17	445	0.358244118164	0.002
17	445	0.358244118164	0
17	445	0.358244118164	0.002
17	445	0.358244118164	0.002
17	445	0.358244118164	0.002
17	457	0.358255093238	0
17	457	0.358255093238	0.01
17	462	0.358495093238	0.002
17	471	0.358825093238	0.01
17	477	0.359433093238	0.002
17	489	0.359444068313	0.005
17	489	0.359444068313	0.005
17	495	0.359684068313	0.002
17	505	0.360720515832	0
17	505	0.360720515832	0
17	505	0.360720515832	0.002
17	506	0.360720515832	0
17	506	0.360720515832	0.1
17	512	0.361416515832	0.002
17	512	0.361416515832	0
17	512	0.361416515832	0.002
17	512	0.361416515832	0.002
17	512	0.361416515832	0.002
17	526	0.361427700306	0
17	526	0.361427700306	0.01
17	531	0.361667700306	0.002
17	539	0.361717700306	0.01
17	544	0.362325700306	0.002
17	551	0.362335700306	0
17	551	0.362335700306	0
17	551	0.362335700306	0.002
17	551	0.362335700306	0.002
17	552	0.362335700306	0
17	552	0.362335700306	0.1
17	557	0.362575700306	0.002
17	557	0.362575700306	0
17	557	0.362575700306	0.002
17	557	0.362575700306	0.002
17	557	0.362575700306	0.002
17	566	0.362645700306	0
17	566	0.362645700306	0
17	566	0.362645700306	0.002
17	567	0.362645700306	0
17	567	0.362645700306	0.1
17	572	0.363253700306	0.002
17	572	0.363253700306	0
17	572	0.363253700306	0.002
17	572	0.363253700306	0.002
17	572	0.363253700306	0.002
17	584	0.36326467538	0
17	584	0.36326467538	0.01
17	589	0.36350467538	0.002
17	599	0.36373467538	0.01
17	605	0.36434267538	0.002
17	622	0.364353650455	0.005
17	622	0.364353650455	0.005
17	628	0.364593650455	0.002
17	637	0.365263650455	0.005
17	646	0.366823650455	0.002
17	651	0.366833650454	0
17	651	0.366833650454	0.01
17	660	0.367073650454	0.002
17	670	0.367123650454	0.01
17	679	0.368683650454	0.002
17	687	0.368693650454	0
17	687	0.368693650454	0
17	687	0.368693650454	0.002
17	687	0.368693650454	0.002
17	688	0.368693650454	0
17	688	0.368693650454	0.1
17	693	0.368933650454	0.002
17	693	0.368933650454	0
17	693	0.368933650454	0.002
17	693	0.368933650454	0.002
17	693	0.368933650454	0.002
17	703	0.369183650454	0
17	703	0.369183650454	0
17	703	0.369183650454	0.002
17	704	0.369183650454	0
17	704	0.369183650454	0.1
17	711	0.370743650454	0.002
17	711	0.370743650454	0
17	711	0.370743650454	0.002
17	711	0.370743650454	0.002
17	711	0.370743650454	0.002
17	724	0.370754755284	0
17	724	0.370754755284	0.01
17	729	0.370994755284	0.002
17	739	0.371466625436	0.005
17	739	0.371466625436	0.005
17	752	0.372194625436	0.002
17	760	0.372644625435	0
17	760	0.372644625435	0.01
17	766	0.373340625435	0.002
17	779	0.37335160051	0.005
17	779	0.37335160051	0.005
17	786	0.37359160051	0.002
17	793	0.37410160051	0.005
17	803	0.37566160051	0.002
17	808	0.375671600509	0
17	808	0.375671600509	0.01
17	813	0.375911600509	0.002
17	822	0.376021600509	0.01
17	829	0.377581600509	0.002
17	837	0.377591600509	0
17	837	0.377591600509	0
17	837	0.377591600509	0.002
17	837	0.377591600509	0.002
17	838	0.377591600509	0
17	838	0.377591600509	0.1
17	843	0.377831600509	0.002
17	843	0.377831600509	0
17	843	0.377831600509	0.002
17	843	0.377831600509	0.002
17	843	0.377831600509	0.002
17	852	0.378481600509	0
17	852	0.378481600509	0
17	852	0.378481600509	0.002
17	853	0.378481600509	0
17	853	0.378481600509	0.1
17	860	0.380041600509	0.002
17	860	0.380041600509	0
17	860	0.380041600509	0.002
17	860	0.380041600509	0.002
17	860	0.380041600509	0.002
17	873	0.380052784983	0
17	873	0.380052784983	0.01
17	878	0.380292784983	0.002
18	0	0	0
18	0	0	0
18	0	0	0
18	0	0	0
18	0	0	0.002
18	30	0.024423462188	0.005
18	39	0.025151462188	0.002
18	50	0.026837174891	0.005
18	59	0.027565174891	0.002
18	68	0.028186012534	0
18	68	0.028186012534	0.01
18	73	0.028914012534	0.002
18	96	0.030555456588	0.01
18	101	0.031283456588	0.002
18	132	0.343113730018	0.005
18	132	0.343113730018	0.005
18	141	0.343841730018	0.002
18	150	0.344727435381	0
18	150	0.344727435381	0.01
18	155	0.345455435381	0.002
18	176	0.345986527377	0
18	176	0.345986527377	0
18	176	0.345986527377	0.002
18	176	0.345986527377	0.002
18	177	0.345986527377	0
18	177	0.345986527377	0.1
18	186	0.346714527377	0.002
18	186	0.346714527377	0
18	186	0.346714527377	0.002
18	186	0.346714527377	0.002
18	186	0.346714527377	0.002
18	206	0.346865502451	0
18	206	0.346865502451	0.01
18	215	0.347561502451	0.002
18	223	0.347571502451	0
18	223	0.347571502451	0
18	223	0.347571502451	0.002
18	223	0.347571502451	0.002
18	224	0.347571502451	0
18	224	0.347571502451	0.1
18	229	0.347811502451	0.002
18	229	0.347811502451	0
18	229	0.347811502451	0.002
18	229	0.347811502451	0.002
18	229	0.347811502451	0.002
18	246	0.348363510523	0.005
18	255	0.349091510523	0.002
18	259	0.349401510523	0
18	259	0.349401510523	0
18	259	0.349401510523	0.002
18	260	0.349401510523	0
18	260	0.349401510523	0.1
18	265	0.350097510523	0.002
18	265	0.350097510523	0
18	265	0.350097510523	0.002
18	265	0.350097510523	0.002
18	265	0.350097510523	0.002
18	277	0.350108485597	0
18	277	0.350108485597	0.01
18	282	0.350348485597	0.002
18	294	0.350499594333	0.005
18	294	0.350499594333	0.005
18	303	0.351227594333	0.002
18	312	0.352996525797	0
18	312	0.352996525797	0.01
18	321	0.353692525797	0.002
18	336	0.353703571749	0.005
18	336	0.353703571749	0.005
18	343	0.353943571749	0.002
18	351	0.354333571749	0.005
18	359	0.354941571749	0.002
18	363	0.354951630627	0
18	363	0.354951630627	0.01
18	368	0.355191630627	0.002
18	378	0.355281630627	0.01
18	384	0.356009630627	0.002
18	405	0.356439630627	0
18	405	0.356439630627	0
18	405	0.356439630627	0.002
18	405	0.356439630627	0.002
18	406	0.356439630627	0
18	406	0.356439630627	0.1
18	412	0.357135630627	0.002
18	412	0.357135630627	0
18	412	0.357135630627	0.002
18	412	0.357135630627	0.002
18	412	0.357135630627	0.002
18	424	0.357146605701	0
18	424	0.357146605701	0.01
18	429	0.357386605701	0.002
18	440	0.357636605701	0.01
18	446	0.358244605701	0.002
18	455	0.358254605701	0
18	455	0.358254605701	0
18	455	0.358254605701	0.002
18	455	0.358254605701	0.002
18	456	0.358254605701	0
18	456	0.358254605701	0.1
18	461	0.358494605701	0.002
18	461	0.358494605701	0
18	461	0.358494605701	0.002
18	461	0.358494605701	0.002
18	461	0.358494605701	0.002
18	469	0.358824605701	0
18	469	0.358824605701	0
18	469	0.358824605701	0.002
18	470	0.358824605701	0
18	470	0.358824605701	0.1
18	476	0.359432605701	0.002
18	476	0.359432605701	0
18	476	0.359432605701	0.002
18	476	0.359432605701	0.002
18	476	0.359432605701	0.002
18	488	0.359443580775	0
18	488	0.359443580775	0.01
18	493	0.359683580775	0.002
18	507	0.360721003369	0.01
18	513	0.361417003369	0.002
18	528	0.361428112105	0.005
18	528	0.361428112105	0.005
18	534	0.361668112105	0.002
18	541	0.361718112105	0.005
18	549	0.362326112105	0.002
18	553	0.362336187843	0
18	553	0.362336187843	0.01
18	558	0.362576187843	0.002
18	568	0.362646187843	0.01
18	573	0.363254187843	0.002
18	582	0.363264187843	0
18	582	0.363264187843	0
18	582	0.363264187843	0.002
18	582	0.363264187843	0.002
18	583	0.363264187843	0
18	583	0.363264187843	0.1
18	588	0.363504187843	0.002
18	588	0.363504187843	0
18	588	0.363504187843	0.002
18	588	0.363504187843	0.002
18	588	0.363504187843	0.002
18	597	0.363734187843	0
18	597	0.363734187843	0
18	597	0.363734187843	0.002
18	598	0.363734187843	0
18	598	0.363734187843	0.1
18	604	0.364342187843	0.002
18	604	0.364342187843	0
18	604	0.364342187843	0.002
18	604	0.364342187843	0.002
18	604	0.364342187843	0.002
18	621	0.364353162917	0
18	621	0.364353162917	0.01
18	626	0.364593162917	0.002
18	636	0.365263162917	0.01
18	642	0.366823162917	0.002
18	649	0.366833162917	0
18	649	0.366833162917	0
18	649	0.366833162917	0.002
18	649	0.366833162917	0.002
18	650	0.366833162917	0
18	650	0.366833162917	0.1
18	659	0.367073162917	0.002
18	659	0.367073162917	0
18	659	0.367073162917	0.002
18	659	0.367073162917	0.002
18	659	0.367073162917	0.002
18	667	0.367123162917	0
18	667	0.367123162917	0
18	667	0.367123162917	0.002
18	668	0.367123162917	0
18	668	0.367123162917	0.1
18	678	0.368683162917	0.002
18	678	0.368683162917	0
18	678	0.368683162917	0.002
18	678	0.368683162917	0.002
18	678	0.368683162917	0.002
18	689	0.368694137991	0
18	689	0.368694137991	0.01
18	694	0.368934137991	0.002
18	705	0.369184137991	0.01
18	712	0.370744137991	0.002
18	726	0.370755183943	0.005
18	726	0.370755183943	0.005
18	732	0.370995183943	0.002
18	738	0.371466137898	0
18	738	0.371466137898	0.01
18	744	0.372194137898	0.002
18	758	0.372644137898	0
18	758	0.372644137898	0
18	758	0.372644137898	0.002
18	758	0.372644137898	0.002
18	759	0.372644137898	0
18	759	0.372644137898	0.1
18	765	0.373340137898	0.002
18	765	0.373340137898	0
18	765	0.373340137898	0.002
18	765	0.373340137898	0.002
18	765	0.373340137898	0.002
18	778	0.373351112972	0
18	778	0.373351112972	0.01
18	784	0.373591112972	0.002
18	792	0.374101112972	0.01
18	799	0.375661112972	0.002
18	806	0.375671112972	0
18	806	0.375671112972	0
18	806	0.375671112972	0.002
18	806	0.375671112972	0.002
18	807	0.375671112972	0
18	807	0.375671112972	0.1
18	812	0.375911112972	0.002
18	812	0.375911112972	0
18	812	0.375911112972	0.002
18	812	0.375911112972	0.002
18	812	0.375911112972	0.002
18	820	0.376021112972	0
18	820	0.376021112972	0
18	820	0.376021112972	0.002
18	821	0.376021112972	0
18	821	0.376021112972	0.1
18	828	0.377581112972	0.002
18	828	0.377581112972	0
18	828	0.377581112972	0.002
18	828	0.377581112972	0.002
18	828	0.377581112972	0.002
18	839	0.377592088046	0
18	839	0.377592088046	0.01
18	844	0.377832088046	0.002
18	854	0.378482088046	0.01
18	861	0.380042088046	0.002
18	875	0.380053196782	0.005
18	875	0.380053196782	0.005
18	881	0.380293196782	0.002
19	0	0	0
19	0	0	0
19	0	0	0
19	0	0	0
19	0	0	0.002
19	31	0.024423921305	0.005
19	40	0.025151921305	0.002
19	51	0.026837641309	0.005
19	60	0.027565641309	0.002
19	71	0.028186500072	0.005
19	88	0.028914500072	0.002
19	99	0.030555944126	0.005
19	116	0.031283944126	0.002
19	133	0.343114196436	0.005
19	142	0.343842196436	0.002
19	153	0.344727922919	0.005
19	170	0.345455922919	0.002
19	179	0.345987014914	0
19	179	0.345987014914	0.01
19	188	0.346715014914	0.002
19	204	0.346865014914	0
19	204	0.346865014914	0
19	204	0.346865014914	0.002
19	204	0.346865014914	0.002
19	205	0.346865014914	0
19	205	0.346865014914	0.1
19	214	0.347561014914	0.002
19	214	0.347561014914	0
19	214	0.347561014914	0.002
19	214	0.347561014914	0.002
19	214	0.347561014914	0.002
19	226	0.347571989988	0
19	226	0.347571989988	0.01
19	231	0.347811989988	0.002
19	247	0.34836396964	0.005
19	247	0.34836396964	0.005
19	256	0.34909196964	0.002
19	262	0.34940199806	0
19	262	0.34940199806	0.01
19	267	0.35009799806	0.002
19	280	0.350108973135	0.005
19	280	0.350108973135	0.005
19	288	0.350348973135	0.002
19	295	0.35050005345	0.005
19	304	0.35122805345	0.002
19	315	0.352997013335	0.005
19	331	0.353693013335	0.002
19	337	0.353704038167	0.005
19	344	0.353944038167	0.002
19	352	0.354334038167	0.005
19	360	0.354942038167	0.002
19	366	0.354952118165	0.005
19	374	0.355192118165	0.002
19	381	0.355282118165	0.005
19	402	0.356010118165	0.002
19	408	0.356440118164	0
19	408	0.356440118164	0.01
19	414	0.357136118164	0.002
19	427	0.357147093239	0.005
19	427	0.357147093239	0.005
19	435	0.357387093239	0.002
19	443	0.357637093239	0.005
19	454	0.358245093239	0.002
19	458	0.358255093238	0
19	458	0.358255093238	0.01
19	463	0.358495093238	0.002
19	472	0.358825093238	0.01
19	478	0.359433093238	0.002
19	486	0.359443093238	0
19	486	0.359443093238	0
19	486	0.359443093238	0.002
19	486	0.359443093238	0.002
19	487	0.359443093238	0
19	487	0.359443093238	0.1
19	492	0.359683093238	0.002
19	492	0.359683093238	0
19	492	0.359683093238	0.002
19	492	0.359683093238	0.002
19	492	0.359683093238	0.002
19	510	0.360721490907	0.005
19	523	0.361417490907	0.002
19	529	0.361428571222	0.005
19	535	0.361668571222	0.002
19	542	0.361718571222	0.005
19	550	0.362326571222	0.002
19	556	0.362336675381	0.005
19	564	0.362576675381	0.002
19	571	0.362646675381	0.005
19	581	0.363254675381	0.002
19	585	0.36326467538	0
19	585	0.36326467538	0.01
19	590	0.36350467538	0.002
19	600	0.36373467538	0.01
19	606	0.36434267538	0.002
19	619	0.36435267538	0
19	619	0.36435267538	0
19	619	0.36435267538	0.002
19	619	0.36435267538	0.002
19	620	0.36435267538	0
19	620	0.36435267538	0.1
19	625	0.36459267538	0.002
19	625	0.36459267538	0
19	625	0.36459267538	0.002
19	625	0.36459267538	0.002
19	625	0.36459267538	0.002
19	634	0.36526267538	0
19	634	0.36526267538	0
19	634	0.36526267538	0.002
19	635	0.36526267538	0
19	635	0.36526267538	0.1
19	641	0.36682267538	0.002
19	641	0.36682267538	0
19	641	0.36682267538	0.002
19	641	0.36682267538	0.002
19	641	0.36682267538	0.002
19	652	0.366833650454	0
19	652	0.366833650454	0.01
19	661	0.367073650454	0.002
19	671	0.367123650454	0.01
19	680	0.368683650454	0.002
19	692	0.368694625529	0.005
19	692	0.368694625529	0.005
19	700	0.368934625529	0.002
19	708	0.369184625529	0.005
19	721	0.370744625529	0.002
19	727	0.370755650361	0.005
19	733	0.370995650361	0.002
19	736	0.371465650361	0
19	736	0.371465650361	0
19	736	0.371465650361	0.002
19	737	0.371465650361	0
19	737	0.371465650361	0.1
19	743	0.372193650361	0.002
19	743	0.372193650361	0
19	743	0.372193650361	0.002
19	743	0.372193650361	0.002
19	743	0.372193650361	0.002
19	761	0.372644625435	0
19	761	0.372644625435	0.01
19	767	0.373340625435	0.002
19	776	0.373350625435	0
19	776	0.373350625435	0
19	776	0.373350625435	0.002
19	776	0.373350625435	0.002
19	777	0.373350625435	0
19	777	0.373350625435	0.1
19	783	0.373590625435	0.002
19	783	0.373590625435	0
19	783	0.373590625435	0.002
19	783	0.373590625435	0.002
19	783	0.373590625435	0.002
19	790	0.374100625435	0
19	790	0.374100625435	0
19	790	0.374100625435	0.002
19	791	0.374100625435	0
19	791	0.374100625435	0.1
19	798	0.375660625435	0.002
19	798	0.375660625435	0
19	798	0.375660625435	0.002
19	798	0.375660625435	0.002
19	798	0.375660625435	0.002
19	809	0.375671600509	0
19	809	0.375671600509	0.01
19	814	0.375911600509	0.002
19	823	0.376021600509	0.01
19	830	0.377581600509	0.002
19	842	0.377592575584	0.005
19	842	0.377592575584	0.005
19	850	0.377832575584	0.002
19	857	0.378482575584	0.005
19	870	0.380042575584	0.002
19	876	0.380053655899	0.005
19	882	0.380293655899	0.002
20	0	0	0
20	0	0	0
20	0	0	2
20	26	0.024422458152	3
20	32	0.025150458152	2
20	242	0.348362506487	3
20	248	0.349090506487	2
20	290	0.350498590297	3
20	296	0.351226590297	2
20	524	0.361427108069	3
20	530	0.361667108069	2
20	537	0.361717108069	3
20	543	0.362325108069	2
20	871	0.380052192746	3
20	877	0.380292192746	2
21	0	0	0
21	0	0	0
21	0	0	0
21	0	0	0.002
21	26	0.024422458152	0
21	26	0.024422458152	0
21	26	0.024422458152	0.002
21	27	0.024422458152	0
21	27	0.024422458152	0.1
21	32	0.025150458152	0.002
21	32	0.025150458152	0
21	32	0.025150458152	0.002
21	32	0.025150458152	0.002
21	32	0.025150458152	0.002
21	49	0.026836946978	0.005
21	58	0.027564946978	0.002
21	70	0.028186117234	0
21	70	0.028186117234	0.01
21	83	0.028914117234	0.002
21	98	0.030555561288	0.01
21	111	0.031283561288	0.002
21	131	0.343113502105	0.005
21	131	0.343113502105	0.005
21	140	0.343841502105	0.002
21	152	0.344727540081	0
21	152	0.344727540081	0.01
21	165	0.345455540081	0.002
21	181	0.345987531413	0.005
21	181	0.345987531413	0.005
21	201	0.346715531413	0.002
21	209	0.346866478067	0.005
21	222	0.347562478067	0.002
21	228	0.347572506487	0.005
21	235	0.347812506487	0.002
21	242	0.348362506487	0
21	242	0.348362506487	0
21	242	0.348362506487	0.002
21	243	0.348362506487	0
21	243	0.348362506487	0.1
21	248	0.349090506487	0.002
21	248	0.349090506487	0
21	248	0.349090506487	0.002
21	248	0.349090506487	0.002
21	248	0.349090506487	0.002
21	264	0.349402514559	0.005
21	274	0.350098514559	0.002
21	279	0.350108590297	0
21	279	0.350108590297	0.01
21	286	0.350348590297	0.002
21	290	0.350498590297	0
21	290	0.350498590297	0
21	290	0.350498590297	0.002
21	290	0.350498590297	0.002
21	291	0.350498590297	0
21	291	0.350498590297	0.1
21	296	0.351226590297	0.002
21	296	0.351226590297	0
21	296	0.351226590297	0.002
21	296	0.351226590297	0.002
21	296	0.351226590297	0.002
21	314	0.352996630497	0
21	314	0.352996630497	0.01
21	329	0.353692630497	0.002
21	335	0.353703343836	0.005
21	335	0.353703343836	0.005
21	342	0.353943343836	0.002
21	350	0.354333343836	0.005
21	358	0.354941343836	0.002
21	365	0.354951735327	0
21	365	0.354951735327	0.01
21	372	0.355191735327	0.002
21	380	0.355281735327	0.01
21	397	0.356009735327	0.002
21	410	0.356440634663	0.005
21	410	0.356440634663	0.005
21	421	0.357136634663	0.002
21	426	0.357146710401	0
21	426	0.357146710401	0.01
21	433	0.357386710401	0.002
21	442	0.357636710401	0.01
21	452	0.358244710401	0.002
21	460	0.358255609737	0.005
21	460	0.358255609737	0.005
21	467	0.358495609737	0.002
21	474	0.358825609737	0.005
21	485	0.359433609737	0.002
21	491	0.359444556391	0.005
21	497	0.359684556391	0.002
21	509	0.360721108069	0
21	509	0.360721108069	0.01
21	517	0.361417108069	0.002
21	524	0.361427108069	0
21	524	0.361427108069	0
21	524	0.361427108069	0.002
21	524	0.361427108069	0.002
21	525	0.361427108069	0
21	525	0.361427108069	0.1
21	530	0.361667108069	0.002
21	530	0.361667108069	0
21	530	0.361667108069	0.002
21	530	0.361667108069	0.002
21	530	0.361667108069	0.002
21	537	0.361717108069	0
21	537	0.361717108069	0
21	537	0.361717108069	0.002
21	538	0.361717108069	0
21	538	0.361717108069	0.1
21	543	0.362325108069	0.002
21	543	0.362325108069	0
21	543	0.362325108069	0.002
21	543	0.362325108069	0.002
21	543	0.362325108069	0.002
21	555	0.362336292543	0
21	555	0.362336292543	0.01
21	562	0.362576292543	0.002
21	570	0.362646292543	0.01
21	579	0.363254292543	0.002
21	587	0.363265191879	0.005
21	587	0.363265191879	0.005
21	594	0.363505191879	0.002
21	602	0.363735191879	0.005
21	618	0.364343191879	0.002
21	624	0.364354138533	0.005
21	630	0.364594138533	0.002
21	639	0.365264138533	0.005
21	648	0.366824138533	0.002
21	654	0.366834166953	0.005
21	665	0.367074166953	0.002
21	673	0.367124166953	0.005
21	686	0.368684166953	0.002
21	691	0.368694242691	0
21	691	0.368694242691	0.01
21	698	0.368934242691	0.002
21	707	0.369184242691	0.01
21	719	0.370744242691	0.002
21	725	0.37075495603	0.005
21	725	0.37075495603	0.005
21	731	0.37099495603	0.002
21	741	0.371467113514	0.005
21	754	0.372195113514	0.002
21	763	0.372645141934	0.005
21	775	0.373341141934	0.002
21	781	0.373352088588	0.005
21	788	0.373592088588	0.002
21	795	0.374102088588	0.005
21	805	0.375662088588	0.002
21	811	0.375672117008	0.005
21	818	0.375912117008	0.002
21	825	0.376022117008	0.005
21	836	0.377582117008	0.002
21	841	0.377592192746	0
21	841	0.377592192746	0.01
21	848	0.377832192746	0.002
21	856	0.378482192746	0.01
21	865	0.380042192746	0.002
21	871	0.380052192746	0
21	871	0.380052192746	0
21	871	0.380052192746	0.002
21	871	0.380052192746	0.002
21	872	0.380052192746	0
21	872	0.380052192746	0.1
21	877	0.380292192746	0.002
21	877	0.380292192746	0
21	877	0.380292192746	0.002
21	877	0.380292192746	0.002
21	877	0.380292192746	0.002
22	0	0	0
22	0	0	0
22	0	0	2
22	46	0.026836193817	3
22	52	0.027564193817	2
22	128	0.343112748944	3
22	134	0.343840748944	2
22	332	0.353702590675	3
22	339	0.353942590675	2
22	347	0.354332590675	3
22	353	0.354940590675	2
22	722	0.370754202869	3
22	728	0.370994202869	2
23	0	0	0
23	0	0	0
23	0	0	0
23	0	0	0.002
23	29	0.024423211313	0.005
23	38	0.025151211313	0.002
23	46	0.026836193817	0
23	46	0.026836193817	0
23	46	0.026836193817	0.002
23	47	0.026836193817	0
23	47	0.026836193817	0.1
23	52	0.027564193817	0.002
23	52	0.027564193817	0
23	52	0.027564193817	0.002
23	52	0.027564193817	0.002
23	52	0.027564193817	0.002
23	69	0.028186077412	0
23	69	0.028186077412	0.01
23	78	0.028914077412	0.002
23	97	0.030555521466	0.01
23	106	0.031283521466	0.002
23	128	0.343112748944	0
23	128	0.343112748944	0
23	128	0.343112748944	0.002
23	128	0.343112748944	0.002
23	129	0.343112748944	0
23	129	0.343112748944	0.1
23	134	0.343840748944	0.002
23	134	0.343840748944	0
23	134	0.343840748944	0.002
23	134	0.343840748944	0.002
23	134	0.343840748944	0.002
23	151	0.344727500259	0
23	151	0.344727500259	0.01
23	160	0.345455500259	0.002
23	180	0.345987508451	0.005
23	180	0.345987508451	0.005
23	200	0.346715508451	0.002
23	208	0.346866462406	0.005
23	221	0.347562462406	0.002
23	227	0.347572483525	0.005
23	234	0.347812483525	0.002
23	245	0.348363259648	0.005
23	254	0.349091259648	0.002
23	263	0.349402491597	0.005
23	273	0.350098491597	0.002
23	278	0.350108550475	0
23	278	0.350108550475	0.01
23	284	0.350348550475	0.002
23	293	0.350499343458	0.005
23	293	0.350499343458	0.005
23	302	0.351227343458	0.002
23	313	0.352996590675	0
23	313	0.352996590675	0.01
23	323	0.353692590675	0.002
23	332	0.353702590675	0
23	332	0.353702590675	0
23	332	0.353702590675	0.002
23	332	0.353702590675	0.002
23	333	0.353702590675	0
23	333	0.353702590675	0.1
23	339	0.353942590675	0.002
23	339	0.353942590675	0
23	339	0.353942590675	0.002
23	339	0.353942590675	0.002
23	339	0.353942590675	0.002
23	347	0.354332590675	0
23	347	0.354332590675	0
23	347	0.354332590675	0.002
23	348	0.354332590675	0
23	348	0.354332590675	0.1
23	353	0.354940590675	0.002
23	353	0.354940590675	0
23	353	0.354940590675	0.002
23	353	0.354940590675	0.002
23	353	0.354940590675	0.002
23	364	0.354951695505	0
23	364	0.354951695505	0.01
23	370	0.355191695505	0.002
23	379	0.355281695505	0.01
23	392	0.356009695505	0.002
23	409	0.356440611701	0.005
23	409	0.356440611701	0.005
23	420	0.357136611701	0.002
23	425	0.357146670579	0
23	425	0.357146670579	0.01
23	431	0.357386670579	0.002
23	441	0.357636670579	0.01
23	450	0.358244670579	0.002
23	459	0.358255586775	0.005
23	459	0.358255586775	0.005
23	466	0.358495586775	0.002
23	473	0.358825586775	0.005
23	484	0.359433586775	0.002
23	490	0.35944454073	0.005
23	496	0.35968454073	0.002
23	508	0.360721068247	0
23	508	0.360721068247	0.01
23	515	0.361417068247	0.002
23	527	0.36142786123	0.005
23	527	0.36142786123	0.005
23	533	0.36166786123	0.002
23	540	0.36171786123	0.005
23	548	0.36232586123	0.002
23	554	0.362336252721	0
23	554	0.362336252721	0.01
23	560	0.362576252721	0.002
23	569	0.362646252721	0.01
23	577	0.363254252721	0.002
23	586	0.363265168917	0.005
23	586	0.363265168917	0.005
23	593	0.363505168917	0.002
23	601	0.363735168917	0.005
23	617	0.364343168917	0.002
23	623	0.364354122872	0.005
23	629	0.364594122872	0.002
23	638	0.365264122872	0.005
23	647	0.366824122872	0.002
23	653	0.366834143991	0.005
23	664	0.367074143991	0.002
23	672	0.367124143991	0.005
23	685	0.368684143991	0.002
23	690	0.368694202869	0
23	690	0.368694202869	0.01
23	696	0.368934202869	0.002
23	706	0.369184202869	0.01
23	714	0.370744202869	0.002
23	722	0.370754202869	0
23	722	0.370754202869	0
23	722	0.370754202869	0.002
23	722	0.370754202869	0.002
23	723	0.370754202869	0
23	723	0.370754202869	0.1
23	728	0.370994202869	0.002
23	728	0.370994202869	0
23	728	0.370994202869	0.002
23	728	0.370994202869	0.002
23	728	0.370994202869	0.002
23	740	0.371467097853	0.005
23	753	0.372195097853	0.002
23	762	0.372645118972	0.005
23	774	0.373341118972	0.002
23	780	0.373352072927	0.005
23	787	0.373592072927	0.002
23	794	0.374102072927	0.005
23	804	0.375662072927	0.002
23	810	0.375672094046	0.005
23	817	0.375912094046	0.002
23	824	0.376022094046	0.005
23	835	0.377582094046	0.002
23	840	0.377592152924	0
23	840	0.377592152924	0.01
23	846	0.377832152924	0.002
23	855	0.378482152924	0.01
23	863	0.380042152924	0.002
23	874	0.380052945907	0.005
23	874	0.380052945907	0.005
23	880	0.380292945907	0.002
24	0	0	0
24	0	0	0
24	0	0	2
24	66	0.028185524997	3
24	72	0.028913524997	2
24	94	0.030554969051	3
24	100	0.031282969051	2
24	148	0.344726947844	3
24	154	0.345454947844	2
24	275	0.35010799806	3
24	281	0.35034799806	2
24	310	0.35299603826	3
24	320	0.35369203826	2
24	361	0.35495114309	3
24	367	0.35519114309	2
24	376	0.35528114309	3
24	383	0.35600914309	2
24	422	0.357146118164	3
24	428	0.357386118164	2
24	438	0.357636118164	3
24	445	0.358244118164	2
24	505	0.360720515832	3
24	512	0.361416515832	2
24	551	0.362335700306	3
24	557	0.362575700306	2
24	566	0.362645700306	3
24	572	0.363253700306	2
24	687	0.368693650454	3
24	693	0.368933650454	2
24	703	0.369183650454	3
24	711	0.370743650454	2
24	837	0.377591600509	3
24	843	0.377831600509	2
24	852	0.378481600509	3
24	860	0.380041600509	2
25	0	0	0
25	0	0	0
25	0	0	0
25	0	0	0.002
25	28	0.024423050389	0
25	28	0.024423050389	0.01
25	33	0.025151050389	0.002
25	48	0.026836746232	0.01
25	53	0.027564746232	0.002
25	66	0.028185524997	0
25	66	0.028185524997	0
25	66	0.028185524997	0.002
25	66	0.028185524997	0.002
25	67	0.028185524997	0
25	67	0.028185524997	0.1
25	72	0.028913524997	0.002
25	72	0.028913524997	0
25	72	0.028913524997	0.002
25	72	0.028913524997	0.002
25	72	0.028913524997	0.002
25	94	0.030554969051	0
25	94	0.030554969051	0
25	94	0.030554969051	0.002
25	95	0.030554969051	0
25	95	0.030554969051	0.1
25	100	0.031282969051	0.002
25	100	0.031282969051	0
25	100	0.031282969051	0.002
25	100	0.031282969051	0.002
25	100	0.031282969051	0.002
25	130	0.343113301359	0
25	130	0.343113301359	0.01
25	135	0.343841301359	0.002
25	148	0.344726947844	0
25	148	0.344726947844	0
25	148	0.344726947844	0.002
25	148	0.344726947844	0.002
25	149	0.344726947844	0
25	149	0.344726947844	0.1
25	154	0.345454947844	0.002
25	154	0.345454947844	0
25	154	0.345454947844	0.002
25	154	0.345454947844	0.002
25	154	0.345454947844	0.002
25	178	0.345987014914	0
25	178	0.345987014914	0.01
25	187	0.346715014914	0.002
25	207	0.346865989989	0.005
25	207	0.346865989989	0.005
25	220	0.347561989989	0.002
25	225	0.347571989988	0
25	225	0.347571989988	0.01
25	230	0.347811989988	0.002
25	244	0.348363098724	0.01
25	249	0.349091098724	0.002
25	261	0.34940199806	0.01
25	266	0.35009799806	0.002
25	275	0.35010799806	0
25	275	0.35010799806	0
25	275	0.35010799806	0.002
25	275	0.35010799806	0.002
25	276	0.35010799806	0
25	276	0.35010799806	0.1
25	281	0.35034799806	0.002
25	281	0.35034799806	0
25	281	0.35034799806	0.002
25	281	0.35034799806	0.002
25	281	0.35034799806	0.002
25	292	0.350499182534	0
25	292	0.350499182534	0.01
25	297	0.351227182534	0.002
25	310	0.35299603826	0
25	310	0.35299603826	0
25	310	0.35299603826	0.002
25	310	0.35299603826	0.002
25	311	0.35299603826	0
25	311	0.35299603826	0.1
25	320	0.35369203826	0.002
25	320	0.35369203826	0
25	320	0.35369203826	0.002
25	320	0.35369203826	0.002
25	320	0.35369203826	0.002
25	334	0.35370314309	0
25	334	0.35370314309	0.01
25	340	0.35394314309	0.002
25	349	0.35433314309	0.01
25	354	0.35494114309	0.002
25	361	0.35495114309	0
25	361	0.35495114309	0
25	361	0.35495114309	0.002
25	361	0.35495114309	0.002
25	362	0.35495114309	0
25	362	0.35495114309	0.1
25	367	0.35519114309	0.002
25	367	0.35519114309	0
25	367	0.35519114309	0.002
25	367	0.35519114309	0.002
25	367	0.35519114309	0.002
25	376	0.35528114309	0
25	376	0.35528114309	0
25	376	0.35528114309	0.002
25	377	0.35528114309	0
25	377	0.35528114309	0.1
25	383	0.35600914309	0.002
25	383	0.35600914309	0
25	383	0.35600914309	0.002
25	383	0.35600914309	0.002
25	383	0.35600914309	0.002
25	407	0.356440118164	0
25	407	0.356440118164	0.01
25	413	0.357136118164	0.002
25	422	0.357146118164	0
25	422	0.357146118164	0
25	422	0.357146118164	0.002
25	422	0.357146118164	0.002
25	423	0.357146118164	0
25	423	0.357146118164	0.1
25	428	0.357386118164	0.002
25	428	0.357386118164	0
25	428	0.357386118164	0.002
25	428	0.357386118164	0.002
25	428	0.357386118164	0.002
25	438	0.357636118164	0
25	438	0.357636118164	0
25	438	0.357636118164	0.002
25	439	0.357636118164	0
25	439	0.357636118164	0.1
25	445	0.358244118164	0.002
25	445	0.358244118164	0
25	445	0.358244118164	0.002
25	445	0.358244118164	0.002
25	445	0.358244118164	0.002
25	457	0.358255093238	0
25	457	0.358255093238	0.01
25	462	0.358495093238	0.002
25	471	0.358825093238	0.01
25	477	0.359433093238	0.002
25	489	0.359444068313	0.005
25	489	0.359444068313	0.005
25	495	0.359684068313	0.002
25	505	0.360720515832	0
25	505	0.360720515832	0
25	505	0.360720515832	0.002
25	506	0.360720515832	0
25	506	0.360720515832	0.1
25	512	0.361416515832	0.002
25	512	0.361416515832	0
25	512	0.361416515832	0.002
25	512	0.361416515832	0.002
25	512	0.361416515832	0.002
25	526	0.361427700306	0
25	526	0.361427700306	0.01
25	531	0.361667700306	0.002
25	539	0.361717700306	0.01
25	544	0.362325700306	0.002
25	551	0.362335700306	0
25	551	0.362335700306	0
25	551	0.362335700306	0.002
25	551	0.362335700306	0.002
25	552	0.362335700306	0
25	552	0.362335700306	0.1
25	557	0.362575700306	0.002
25	557	0.362575700306	0
25	557	0.362575700306	0.002
25	557	0.362575700306	0.002
25	557	0.362575700306	0.002
25	566	0.362645700306	0
25	566	0.362645700306	0
25	566	0.362645700306	0.002
25	567	0.362645700306	0
25	567	0.362645700306	0.1
25	572	0.363253700306	0.002
25	572	0.363253700306	0
25	572	0.363253700306	0.002
25	572	0.363253700306	0.002
25	572	0.363253700306	0.002
25	584	0.36326467538	0
25	584	0.36326467538	0.01
25	589	0.36350467538	0.002
25	599	0.36373467538	0.01
25	605	0.36434267538	0.002
25	622	0.364353650455	0.005
25	622	0.364353650455	0.005
25	628	0.364593650455	0.002
25	637	0.365263650455	0.005
25	646	0.366823650455	0.002
25	651	0.366833650454	0
25	651	0.366833650454	0.01
25	660	0.367073650454	0.002
25	670	0.367123650454	0.01
25	679	0.368683650454	0.002
25	687	0.368693650454	0
25	687	0.368693650454	0
25	687	0.368693650454	0.002
25	687	0.368693650454	0.002
25	688	0.368693650454	0
25	688	0.368693650454	0.1
25	693	0.368933650454	0.002
25	693	0.368933650454	0
25	693	0.368933650454	0.002
25	693	0.368933650454	0.002
25	693	0.368933650454	0.002
25	703	0.369183650454	0
25	703	0.369183650454	0
25	703	0.369183650454	0.002
25	704	0.369183650454	0
25	704	0.369183650454	0.1
25	711	0.370743650454	0.002
25	711	0.370743650454	0
25	711	0.370743650454	0.002
25	711	0.370743650454	0.002
25	711	0.370743650454	0.002
25	724	0.370754755284	0
25	724	0.370754755284	0.01
25	729	0.370994755284	0.002
25	739	0.371466625436	0.005
25	739	0.371466625436	0.005
25	752	0.372194625436	0.002
25	760	0.372644625435	0
25	760	0.372644625435	0.01
25	766	0.373340625435	0.002
25	779	0.37335160051	0.005
25	779	0.37335160051	0.005
25	786	0.37359160051	0.002
25	793	0.37410160051	0.005
25	803	0.37566160051	0.002
25	808	0.375671600509	0
25	808	0.375671600509	0.01
25	813	0.375911600509	0.002
25	822	0.376021600509	0.01
25	829	0.377581600509	0.002
25	837	0.377591600509	0
25	837	0.377591600509	0
25	837	0.377591600509	0.002
25	837	0.377591600509	0.002
25	838	0.377591600509	0
25	838	0.377591600509	0.1
25	843	0.377831600509	0.002
25	843	0.377831600509	0
25	843	0.377831600509	0.002
25	843	0.377831600509	0.002
25	843	0.377831600509	0.002
25	852	0.378481600509	0
25	852	0.378481600509	0
25	852	0.378481600509	0.002
25	853	0.378481600509	0
25	853	0.378481600509	0.1
25	860	0.380041600509	0.002
25	860	0.380041600509	0
25	860	0.380041600509	0.002
25	860	0.380041600509	0.002
25	860	0.380041600509	0.002
25	873	0.380052784983	0
25	873	0.380052784983	0.01
25	878	0.380292784983	0.002
26	0	0	0
26	0	0	0
26	0	0	2
26	176	0.345986527377	3
26	186	0.346714527377	2
26	223	0.347571502451	3
26	229	0.347811502451	2
26	259	0.349401510523	3
26	265	0.350097510523	2
26	405	0.356439630627	3
26	412	0.357135630627	2
26	455	0.358254605701	3
26	461	0.358494605701	2
26	469	0.358824605701	3
26	476	0.359432605701	2
26	582	0.363264187843	3
26	588	0.363504187843	2
26	597	0.363734187843	3
26	604	0.364342187843	2
26	649	0.366833162917	3
26	659	0.367073162917	2
26	667	0.367123162917	3
26	678	0.368683162917	2
26	758	0.372644137898	3
26	765	0.373340137898	2
26	806	0.375671112972	3
26	812	0.375911112972	2
26	820	0.376021112972	3
26	828	0.377581112972	2
27	0	0	0
27	0	0	0
27	0	0	0
27	0	0	0.002
27	30	0.024423462188	0.005
27	39	0.025151462188	0.002
27	50	0.026837174891	0.005
27	59	0.027565174891	0.002
27	68	0.028186012534	0
27	68	0.028186012534	0.01
27	73	0.028914012534	0.002
27	96	0.030555456588	0.01
27	101	0.031283456588	0.002
27	132	0.343113730018	0.005
27	132	0.343113730018	0.005
27	141	0.343841730018	0.002
27	150	0.344727435381	0
27	150	0.344727435381	0.01
27	155	0.345455435381	0.002
27	176	0.345986527377	0
27	176	0.345986527377	0
27	176	0.345986527377	0.002
27	176	0.345986527377	0.002
27	177	0.345986527377	0
27	177	0.345986527377	0.1
27	186	0.346714527377	0.002
27	186	0.346714527377	0
27	186	0.346714527377	0.002
27	186	0.346714527377	0.002
27	186	0.346714527377	0.002
27	206	0.346865502451	0
27	206	0.346865502451	0.01
27	215	0.347561502451	0.002
27	223	0.347571502451	0
27	223	0.347571502451	0
27	223	0.347571502451	0.002
27	223	0.347571502451	0.002
27	224	0.347571502451	0
27	224	0.347571502451	0.1
27	229	0.347811502451	0.002
27	229	0.347811502451	0
27	229	0.347811502451	0.002
27	229	0.347811502451	0.002
27	229	0.347811502451	0.002
27	246	0.348363510523	0.005
27	255	0.349091510523	0.002
27	259	0.349401510523	0
27	259	0.349401510523	0
27	259	0.349401510523	0.002
27	260	0.349401510523	0
27	260	0.349401510523	0.1
27	265	0.350097510523	0.002
27	265	0.350097510523	0
27	265	0.350097510523	0.002
27	265	0.350097510523	0.002
27	265	0.350097510523	0.002
27	277	0.350108485597	0
27	277	0.350108485597	0.01
27	282	0.350348485597	0.002
27	294	0.350499594333	0.005
27	294	0.350499594333	0.005
27	303	0.351227594333	0.002
27	312	0.352996525797	0
27	312	0.352996525797	0.01
27	321	0.353692525797	0.002
27	336	0.353703571749	0.005
27	336	0.353703571749	0.005
27	343	0.353943571749	0.002
27	351	0.354333571749	0.005
27	359	0.354941571749	0.002
27	363	0.354951630627	0
27	363	0.354951630627	0.01
27	368	0.355191630627	0.002
27	378	0.355281630627	0.01
27	384	0.356009630627	0.002
27	405	0.356439630627	0
27	405	0.356439630627	0
27	405	0.356439630627	0.002
27	405	0.356439630627	0.002
27	406	0.356439630627	0
27	406	0.356439630627	0.1
27	412	0.357135630627	0.002
27	412	0.357135630627	0
27	412	0.357135630627	0.002
27	412	0.357135630627	0.002
27	412	0.357135630627	0.002
27	424	0.357146605701	0
27	424	0.357146605701	0.01
27	429	0.357386605701	0.002
27	440	0.357636605701	0.01
27	446	0.358244605701	0.002
27	455	0.358254605701	0
27	455	0.358254605701	0
27	455	0.358254605701	0.002
27	455	0.358254605701	0.002
27	456	0.358254605701	0
27	456	0.358254605701	0.1
27	461	0.358494605701	0.002
27	461	0.358494605701	0
27	461	0.358494605701	0.002
27	461	0.358494605701	0.002
27	461	0.358494605701	0.002
27	469	0.358824605701	0
27	469	0.358824605701	0
27	469	0.358824605701	0.002
27	470	0.358824605701	0
27	470	0.358824605701	0.1
27	476	0.359432605701	0.002
27	476	0.359432605701	0
27	476	0.359432605701	0.002
27	476	0.359432605701	0.002
27	476	0.359432605701	0.002
27	488	0.359443580775	0
27	488	0.359443580775	0.01
27	493	0.359683580775	0.002
27	507	0.360721003369	0.01
27	513	0.361417003369	0.002
27	528	0.361428112105	0.005
27	528	0.361428112105	0.005
27	534	0.361668112105	0.002
27	541	0.361718112105	0.005
27	549	0.362326112105	0.002
27	553	0.362336187843	0
27	553	0.362336187843	0.01
27	558	0.362576187843	0.002
27	568	0.362646187843	0.01
27	573	0.363254187843	0.002
27	582	0.363264187843	0
27	582	0.363264187843	0
27	582	0.363264187843	0.002
27	582	0.363264187843	0.002
27	583	0.363264187843	0
27	583	0.363264187843	0.1
27	588	0.363504187843	0.002
27	588	0.363504187843	0
27	588	0.363504187843	0.002
27	588	0.363504187843	0.002
27	588	0.363504187843	0.002
27	597	0.363734187843	0
27	597	0.363734187843	0
27	597	0.363734187843	0.002
27	598	0.363734187843	0
27	598	0.363734187843	0.1
27	604	0.364342187843	0.002
27	604	0.364342187843	0
27	604	0.364342187843	0.002
27	604	0.364342187843	0.002
27	604	0.364342187843	0.002
27	621	0.364353162917	0
27	621	0.364353162917	0.01
27	626	0.364593162917	0.002
27	636	0.365263162917	0.01
27	642	0.366823162917	0.002
27	649	0.366833162917	0
27	649	0.366833162917	0
27	649	0.366833162917	0.002
27	649	0.366833162917	0.002
27	650	0.366833162917	0
27	650	0.366833162917	0.1
27	659	0.367073162917	0.002
27	659	0.367073162917	0
27	659	0.367073162917	0.002
27	659	0.367073162917	0.002
27	659	0.367073162917	0.002
27	667	0.367123162917	0
27	667	0.367123162917	0
27	667	0.367123162917	0.002
27	668	0.367123162917	0
27	668	0.367123162917	0.1
27	678	0.368683162917	0.002
27	678	0.368683162917	0
27	678	0.368683162917	0.002
27	678	0.368683162917	0.002
27	678	0.368683162917	0.002
27	689	0.368694137991	0
27	689	0.368694137991	0.01
27	694	0.368934137991	0.002
27	705	0.369184137991	0.01
27	712	0.370744137991	0.002
27	726	0.370755183943	0.005
27	726	0.370755183943	0.005
27	732	0.370995183943	0.002
27	738	0.371466137898	0
27	738	0.371466137898	0.01
27	744	0.372194137898	0.002
27	758	0.372644137898	0
27	758	0.372644137898	0
27	758	0.372644137898	0.002
27	758	0.372644137898	0.002
27	759	0.372644137898	0
27	759	0.372644137898	0.1
27	765	0.373340137898	0.002
27	765	0.373340137898	0
27	765	0.373340137898	0.002
27	765	0.373340137898	0.002
27	765	0.373340137898	0.002
27	778	0.373351112972	0
27	778	0.373351112972	0.01
27	784	0.373591112972	0.002
27	792	0.374101112972	0.01
27	799	0.375661112972	0.002
27	806	0.375671112972	0
27	806	0.375671112972	0
27	806	0.375671112972	0.002
27	806	0.375671112972	0.002
27	807	0.375671112972	0
27	807	0.375671112972	0.1
27	812	0.375911112972	0.002
27	812	0.375911112972	0
27	812	0.375911112972	0.002
27	812	0.375911112972	0.002
27	812	0.375911112972	0.002
27	820	0.376021112972	0
27	820	0.376021112972	0
27	820	0.376021112972	0.002
27	821	0.376021112972	0
27	821	0.376021112972	0.1
27	828	0.377581112972	0.002
27	828	0.377581112972	0
27	828	0.377581112972	0.002
27	828	0.377581112972	0.002
27	828	0.377581112972	0.002
27	839	0.377592088046	0
27	839	0.377592088046	0.01
27	844	0.377832088046	0.002
27	854	0.378482088046	0.01
27	861	0.380042088046	0.002
27	875	0.380053196782	0.005
27	875	0.380053196782	0.005
27	881	0.380293196782	0.002
28	0	0	0
28	0	0	0
28	0	0	2
28	204	0.346865014914	3
28	214	0.347561014914	2
28	486	0.359443093238	3
28	492	0.359683093238	2
28	619	0.36435267538	3
28	625	0.36459267538	2
28	634	0.36526267538	3
28	641	0.36682267538	2
28	736	0.371465650361	3
28	743	0.372193650361	2
28	776	0.373350625435	3
28	783	0.373590625435	2
28	790	0.374100625435	3
28	798	0.375660625435	2
29	0	0	0
29	0	0	0
29	0	0	0
29	0	0	0.002
29	31	0.024423921305	0.005
29	40	0.025151921305	0.002
29	51	0.026837641309	0.005
29	60	0.027565641309	0.002
29	71	0.028186500072	0.005
29	88	0.028914500072	0.002
29	99	0.030555944126	0.005
29	116	0.031283944126	0.002
29	133	0.343114196436	0.005
29	142	0.343842196436	0.002
29	153	0.344727922919	0.005
29	170	0.345455922919	0.002
29	179	0.345987014914	0
29	179	0.345987014914	0.01
29	188	0.346715014914	0.002
29	204	0.346865014914	0
29	204	0.346865014914	0
29	204	0.346865014914	0.002
29	204	0.346865014914	0.002
29	205	0.346865014914	0
29	205	0.346865014914	0.1
29	214	0.347561014914	0.002
29	214	0.347561014914	0
29	214	0.347561014914	0.002
29	214	0.347561014914	0.002
29	214	0.347561014914	0.002
29	226	0.347571989988	0
29	226	0.347571989988	0.01
29	231	0.347811989988	0.002
29	247	0.34836396964	0.005
29	247	0.34836396964	0.005
29	256	0.34909196964	0.002
29	262	0.34940199806	0
29	262	0.34940199806	0.01
29	267	0.35009799806	0.002
29	280	0.350108973135	0.005
29	280	0.350108973135	0.005
29	288	0.350348973135	0.002
29	295	0.35050005345	0.005
29	304	0.35122805345	0.002
29	315	0.352997013335	0.005
29	331	0.353693013335	0.002
29	337	0.353704038167	0.005
29	344	0.353944038167	0.002
29	352	0.354334038167	0.005
29	360	0.354942038167	0.002
29	366	0.354952118165	0.005
[...]
85	1130	34.7	0
85	1130	34.8	0
85	1130	34.9	0
85	1130	35	0
85	1130	35.1	0
85	1130	35.2	0
85	1130	35.3	0
85	1130	35.4	0
85	1130	35.5	0
85	1130	35.6	0
85	1130	35.7	0
85	1130	35.8	0
85	1130	35.9	0
85	1130	36	0
85	1130	36.1	0
85	1130	36.2	0
85	1130	36.3	0
85	1130	36.4	0
85	1130	36.5	0
85	1130	36.6	0
85	1130	36.7	0
85	1130	36.8	0
85	1130	36.9	0
85	1130	37	0
85	1130	37.1	0
85	1130	37.2	0
85	1130	37.3	0
85	1130	37.4	0
85	1130	37.5	0
85	1130	37.6	0
85	1130	37.7	0
85	1130	37.8	0
85	1130	37.9	0
85	1130	38	0
85	1130	38.1	0
85	1130	38.2	0
85	1130	38.3	0
85	1130	38.4	0
85	1130	38.5	0
85	1130	38.6	0
85	1130	38.7	0
85	1130	38.8	0
85	1130	38.9	0
85	1130	39	0
85	1130	39.1	0
85	1130	39.2	0
85	1130	39.3	0
85	1130	39.4	0
85	1130	39.5	0
85	1130	39.6	0
85	1130	39.7	0
85	1130	39.8	0
85	1130	39.9	0
85	1130	40	0
86	199	0.346715014914	0
86	619	0.36435267538	1e-05
86	663	0.367073650454	4.4108933e-05
86	776	0.373350625435	1e-05
87	199	0.346715014914	384
87	619	0.36435267538	1248
87	663	0.367073650454	416
87	776	0.373350625435	1248
88	199	0.1	0
88	199	0.2	0
88	199	0.3	0
88	1130	0.4	32960
88	1130	0.5	0
88	1130	0.6	0
88	1130	0.7	0
88	1130	0.8	0
88	1130	0.9	0
88	1130	1	0
88	1130	1.1	0
88	1130	1.2	0
88	1130	1.3	0
88	1130	1.4	0
88	1130	1.5	0
88	1130	1.6	0
88	1130	1.7	0
88	1130	1.8	0
88	1130	1.9	0
88	1130	2	0
88	1130	2.1	0
88	1130	2.2	0
88	1130	2.3	0
88	1130	2.4	0
88	1130	2.5	0
88	1130	2.6	0
88	1130	2.7	0
88	1130	2.8	0
88	1130	2.9	0
88	1130	3	0
88	1130	3.1	0
88	1130	3.2	0
88	1130	3.3	0
88	1130	3.4	0
88	1130	3.5	0
88	1130	3.6	0
88	1130	3.7	0
88	1130	3.8	0
88	1130	3.9	0
88	1130	4	0
88	1130	4.1	0
88	1130	4.2	0
88	1130	4.3	0
88	1130	4.4	0
88	1130	4.5	0
88	1130	4.6	0
88	1130	4.7	0
88	1130	4.8	0
88	1130	4.9	0
88	1130	5	0
88	1130	5.1	0
88	1130	5.2	0
88	1130	5.3	0
88	1130	5.4	0
88	1130	5.5	0
88	1130	5.6	0
88	1130	5.7	0
88	1130	5.8	0
88	1130	5.9	0
88	1130	6	0
88	1130	6.1	0
88	1130	6.2	0
88	1130	6.3	0
88	1130	6.4	0
88	1130	6.5	0
88	1130	6.6	0
88	1130	6.7	0
88	1130	6.8	0
88	1130	6.9	0
88	1130	7	0
88	1130	7.1	0
88	1130	7.2	0
88	1130	7.3	0
88	1130	7.4	0
88	1130	7.5	0
88	1130	7.6	0
88	1130	7.7	0
88	1130	7.8	0
88	1130	7.9	0
88	1130	8	0
88	1130	8.1	0
88	1130	8.2	0
88	1130	8.3	0
88	1130	8.4	0
88	1130	8.5	0
88	1130	8.6	0
88	1130	8.7	0
88	1130	8.8	0
88	1130	8.9	0
88	1130	9	0
88	1130	9.1	0
88	1130	9.2	0
88	1130	9.3	0
88	1130	9.4	0
88	1130	9.5	0
88	1130	9.6	0
88	1130	9.7	0
88	1130	9.8	0
88	1130	9.9	0
88	1130	10	0
88	1130	10.1	0
88	1130	10.2	0
88	1130	10.3	0
88	1130	10.4	0
88	1130	10.5	0
88	1130	10.6	0
88	1130	10.7	0
88	1130	10.8	0
88	1130	10.9	0
88	1130	11	0
88	1130	11.1	0
88	1130	11.2	0
88	1130	11.3	0
88	1130	11.4	0
88	1130	11.5	0
88	1130	11.6	0
88	1130	11.7	0
88	1130	11.8	0
88	1130	11.9	0
88	1130	12	0
88	1130	12.1	0
88	1130	12.2	0
88	1130	12.3	0
88	1130	12.4	0
88	1130	12.5	0
88	1130	12.6	0
88	1130	12.7	0
88	1130	12.8	0
88	1130	12.9	0
88	1130	13	0
88	1130	13.1	0
88	1130	13.2	0
88	1130	13.3	0
88	1130	13.4	0
88	1130	13.5	0
88	1130	13.6	0
88	1130	13.7	0
88	1130	13.8	0
88	1130	13.9	0
88	1130	14	0
88	1130	14.1	0
88	1130	14.2	0
88	1130	14.3	0
88	1130	14.4	0
88	1130	14.5	0
88	1130	14.6	0
88	1130	14.7	0
88	1130	14.8	0
88	1130	14.9	0
88	1130	15	0
88	1130	15.1	0
88	1130	15.2	0
88	1130	15.3	0
88	1130	15.4	0
88	1130	15.5	0
88	1130	15.6	0
88	1130	15.7	0
88	1130	15.8	0
88	1130	15.9	0
88	1130	16	0
88	1130	16.1	0
88	1130	16.2	0
88	1130	16.3	0
88	1130	16.4	0
88	1130	16.5	0
88	1130	16.6	0
88	1130	16.7	0
88	1130	16.8	0
88	1130	16.9	0
88	1130	17	0
88	1130	17.1	0
88	1130	17.2	0
88	1130	17.3	0
88	1130	17.4	0
88	1130	17.5	0
88	1130	17.6	0
88	1130	17.7	0
88	1130	17.8	0
88	1130	17.9	0
88	1130	18	0
88	1130	18.1	0
88	1130	18.2	0
88	1130	18.3	0
88	1130	18.4	0
88	1130	18.5	0
88	1130	18.6	0
88	1130	18.7	0
88	1130	18.8	0
88	1130	18.9	0
88	1130	19	0
88	1130	19.1	0
88	1130	19.2	0
88	1130	19.3	0
88	1130	19.4	0
88	1130	19.5	0
88	1130	19.6	0
88	1130	19.7	0
88	1130	19.8	0
88	1130	19.9	0
88	1130	20	0
88	1130	20.1	0
88	1130	20.2	0
88	1130	20.3	0
88	1130	20.4	0
88	1130	20.5	0
88	1130	20.6	0
88	1130	20.7	0
88	1130	20.8	0
88	1130	20.9	0
88	1130	21	0
88	1130	21.1	0
88	1130	21.2	0
88	1130	21.3	0
88	1130	21.4	0
88	1130	21.5	0
88	1130	21.6	0
88	1130	21.7	0
88	1130	21.8	0
88	1130	21.9	0
88	1130	22	0
88	1130	22.1	0
88	1130	22.2	0
88	1130	22.3	0
88	1130	22.4	0
88	1130	22.5	0
88	1130	22.6	0
88	1130	22.7	0
88	1130	22.8	0
88	1130	22.9	0
88	1130	23	0
88	1130	23.1	0
88	1130	23.2	0
88	1130	23.3	0
88	1130	23.4	0
88	1130	23.5	0
88	1130	23.6	0
88	1130	23.7	0
88	1130	23.8	0
88	1130	23.9	0
88	1130	24	0
88	1130	24.1	0
88	1130	24.2	0
88	1130	24.3	0
88	1130	24.4	0
88	1130	24.5	0
88	1130	24.6	0
88	1130	24.7	0
88	1130	24.8	0
88	1130	24.9	0
88	1130	25	0
88	1130	25.1	0
88	1130	25.2	0
88	1130	25.3	0
88	1130	25.4	0
88	1130	25.5	0
88	1130	25.6	0
88	1130	25.7	0
88	1130	25.8	0
88	1130	25.9	0
88	1130	26	0
88	1130	26.1	0
88	1130	26.2	0
88	1130	26.3	0
88	1130	26.4	0
88	1130	26.5	0
88	1130	26.6	0
88	1130	26.7	0
88	1130	26.8	0
88	1130	26.9	0
88	1130	27	0
88	1130	27.1	0
88	1130	27.2	0
88	1130	27.3	0
88	1130	27.4	0
88	1130	27.5	0
88	1130	27.6	0
88	1130	27.7	0
88	1130	27.8	0
88	1130	27.9	0
88	1130	28	0
88	1130	28.1	0
88	1130	28.2	0
88	1130	28.3	0
88	1130	28.4	0
88	1130	28.5	0
88	1130	28.6	0
88	1130	28.7	0
88	1130	28.8	0
88	1130	28.9	0
88	1130	29	0
88	1130	29.1	0
88	1130	29.2	0
88	1130	29.3	0
88	1130	29.4	0
88	1130	29.5	0
88	1130	29.6	0
88	1130	29.7	0
88	1130	29.8	0
88	1130	29.9	0
88	1130	30	0
88	1130	30.1	0
88	1130	30.2	0
88	1130	30.3	0
88	1130	30.4	0
88	1130	30.5	0
88	1130	30.6	0
88	1130	30.7	0
88	1130	30.8	0
88	1130	30.9	0
88	1130	31	0
88	1130	31.1	0
88	1130	31.2	0
88	1130	31.3	0
88	1130	31.4	0
88	1130	31.5	0
88	1130	31.6	0
88	1130	31.7	0
88	1130	31.8	0
88	1130	31.9	0
88	1130	32	0
88	1130	32.1	0
88	1130	32.2	0
88	1130	32.3	0
88	1130	32.4	0
88	1130	32.5	0
88	1130	32.6	0
88	1130	32.7	0
88	1130	32.8	0
88	1130	32.9	0
88	1130	33	0
88	1130	33.1	0
88	1130	33.2	0
88	1130	33.3	0
88	1130	33.4	0
88	1130	33.5	0
88	1130	33.6	0
88	1130	33.7	0
88	1130	33.8	0
88	1130	33.9	0
88	1130	34	0
88	1130	34.1	0
88	1130	34.2	0
88	1130	34.3	0
88	1130	34.4	0
88	1130	34.5	0
88	1130	34.6	0
88	1130	34.7	0
88	1130	34.8	0
88	1130	34.9	0
88	1130	35	0
88	1130	35.1	0
88	1130	35.2	0
88	1130	35.3	0
88	1130	35.4	0
88	1130	35.5	0
88	1130	35.6	0
88	1130	35.7	0
88	1130	35.8	0
88	1130	35.9	0
88	1130	36	0
88	1130	36.1	0
88	1130	36.2	0
88	1130	36.3	0
88	1130	36.4	0
88	1130	36.5	0
88	1130	36.6	0
88	1130	36.7	0
88	1130	36.8	0
88	1130	36.9	0
88	1130	37	0
88	1130	37.1	0
88	1130	37.2	0
88	1130	37.3	0
88	1130	37.4	0
88	1130	37.5	0
88	1130	37.6	0
88	1130	37.7	0
88	1130	37.8	0
88	1130	37.9	0
88	1130	38	0
88	1130	38.1	0
88	1130	38.2	0
88	1130	38.3	0
88	1130	38.4	0
88	1130	38.5	0
88	1130	38.6	0
88	1130	38.7	0
88	1130	38.8	0
88	1130	38.9	0
88	1130	39	0
88	1130	39.1	0
88	1130	39.2	0
88	1130	39.3	0
88	1130	39.4	0
88	1130	39.5	0
88	1130	39.6	0
88	1130	39.7	0
88	1130	39.8	0
88	1130	39.9	0
88	1130	40	0
89	199	0.346715014914	0
89	616	0.36434267538	1
89	619	0.36435267538	0
89	658	0.367029541521	1
89	663	0.367073650454	0
89	773	0.373340625435	1
89	776	0.373350625435	0
90	199	0.346715014914	0
90	616	0.36434267538	1248
90	619	0.36435267538	0
90	658	0.367029541521	416
90	663	0.367073650454	0
90	773	0.373340625435	1248
90	776	0.373350625435	0
91	204	0.346865014914	1
91	205	0.346865014914	2
91	214	0.347561014914	1
91	214	0.347561014914	0
91	486	0.359443093238	1
91	487	0.359443093238	2
91	492	0.359683093238	1
91	492	0.359683093238	0
91	619	0.36435267538	1
91	620	0.36435267538	2
91	625	0.36459267538	1
91	625	0.36459267538	0
91	634	0.36526267538	1
91	635	0.36526267538	2
91	641	0.36682267538	1
91	641	0.36682267538	0
91	736	0.371465650361	1
91	737	0.371465650361	2
91	743	0.372193650361	1
91	743	0.372193650361	0
91	776	0.373350625435	1
91	777	0.373350625435	2
91	783	0.373590625435	1
91	783	0.373590625435	0
91	790	0.374100625435	1
91	791	0.374100625435	2
91	798	0.375660625435	1
91	798	0.375660625435	0
92	269	0.35009799806	75
92	416	0.357136118164	75
92	682	0.368683650454	183
92	832	0.377581600509	183
93	322	0.353692525797	75
93	514	0.361417003369	75
93	713	0.370744137991	183
93	862	0.380042088046	183
94	330	0.353692630497	75
94	453	0.358244710401	64
94	580	0.363254292543	64
94	720	0.370744242691	183
95	451	0.358244670579	64
95	516	0.361417068247	75
95	578	0.363254252721	64
95	864	0.380042152924	183
96	479	0.359433093238	64
96	607	0.36434267538	64
96	768	0.373340625435	75
97	611	0.36434267538	128
98	1130	0.1	0
98	1130	0.2	0
98	1130	0.3	0
98	1130	0.4	0
98	1130	0.5	0
98	1130	0.6	0
98	1130	0.7	0
98	1130	0.8	0
98	1130	0.9	0
98	1130	1	0
98	1130	1.1	0
98	1130	1.2	0
98	1130	1.3	0
98	1130	1.4	0
98	1130	1.5	0
98	1130	1.6	0
98	1130	1.7	0
98	1130	1.8	0
98	1130	1.9	0
98	1130	2	0
98	1130	2.1	0
98	1130	2.2	0
98	1130	2.3	0
98	1130	2.4	0
98	1130	2.5	0
98	1130	2.6	0
98	1130	2.7	0
98	1130	2.8	0
98	1130	2.9	0
98	1130	3	0
98	1130	3.1	0
98	1130	3.2	0
98	1130	3.3	0
98	1130	3.4	0
98	1130	3.5	0
98	1130	3.6	0
98	1130	3.7	0
98	1130	3.8	0
98	1130	3.9	0
98	1130	4	0
98	1130	4.1	0
98	1130	4.2	0
98	1130	4.3	0
98	1130	4.4	0
98	1130	4.5	0
98	1130	4.6	0
98	1130	4.7	0
98	1130	4.8	0
98	1130	4.9	0
98	1130	5	0
98	1130	5.1	0
98	1130	5.2	0
98	1130	5.3	0
98	1130	5.4	0
98	1130	5.5	0
98	1130	5.6	0
98	1130	5.7	0
98	1130	5.8	0
98	1130	5.9	0
98	1130	6	0
98	1130	6.1	0
98	1130	6.2	0
98	1130	6.3	0
98	1130	6.4	0
98	1130	6.5	0
98	1130	6.6	0
98	1130	6.7	0
98	1130	6.8	0
98	1130	6.9	0
98	1130	7	0
98	1130	7.1	0
98	1130	7.2	0
98	1130	7.3	0
98	1130	7.4	0
98	1130	7.5	0
98	1130	7.6	0
98	1130	7.7	0
98	1130	7.8	0
98	1130	7.9	0
98	1130	8	0
98	1130	8.1	0
98	1130	8.2	0
98	1130	8.3	0
98	1130	8.4	0
98	1130	8.5	0
98	1130	8.6	0
98	1130	8.7	0
98	1130	8.8	0
98	1130	8.9	0
98	1130	9	0
98	1130	9.1	0
98	1130	9.2	0
98	1130	9.3	0
98	1130	9.4	0
98	1130	9.5	0
98	1130	9.6	0
98	1130	9.7	0
98	1130	9.8	0
98	1130	9.9	0
98	1130	10	0
98	1130	10.1	0
98	1130	10.2	0
98	1130	10.3	0
98	1130	10.4	0
98	1130	10.5	0
98	1130	10.6	0
98	1130	10.7	0
98	1130	10.8	0
98	1130	10.9	0
98	1130	11	0
98	1130	11.1	0
98	1130	11.2	0
98	1130	11.3	0
98	1130	11.4	0
98	1130	11.5	0
98	1130	11.6	0
98	1130	11.7	0
98	1130	11.8	0
98	1130	11.9	0
98	1130	12	0
98	1130	12.1	0
98	1130	12.2	0
98	1130	12.3	0
98	1130	12.4	0
98	1130	12.5	0
98	1130	12.6	0
98	1130	12.7	0
98	1130	12.8	0
98	1130	12.9	0
98	1130	13	0
98	1130	13.1	0
98	1130	13.2	0
98	1130	13.3	0
98	1130	13.4	0
98	1130	13.5	0
98	1130	13.6	0
98	1130	13.7	0
98	1130	13.8	0
98	1130	13.9	0
98	1130	14	0
98	1130	14.1	0
98	1130	14.2	0
98	1130	14.3	0
98	1130	14.4	0
98	1130	14.5	0
98	1130	14.6	0
98	1130	14.7	0
98	1130	14.8	0
98	1130	14.9	0
98	1130	15	0
98	1130	15.1	0
98	1130	15.2	0
98	1130	15.3	0
98	1130	15.4	0
98	1130	15.5	0
98	1130	15.6	0
98	1130	15.7	0
98	1130	15.8	0
98	1130	15.9	0
98	1130	16	0
98	1130	16.1	0
98	1130	16.2	0
98	1130	16.3	0
98	1130	16.4	0
98	1130	16.5	0
98	1130	16.6	0
98	1130	16.7	0
98	1130	16.8	0
98	1130	16.9	0
98	1130	17	0
98	1130	17.1	0
98	1130	17.2	0
98	1130	17.3	0
98	1130	17.4	0
98	1130	17.5	0
98	1130	17.6	0
98	1130	17.7	0
98	1130	17.8	0
98	1130	17.9	0
98	1130	18	0
98	1130	18.1	0
98	1130	18.2	0
98	1130	18.3	0
98	1130	18.4	0
98	1130	18.5	0
98	1130	18.6	0
98	1130	18.7	0
98	1130	18.8	0
98	1130	18.9	0
98	1130	19	0
98	1130	19.1	0
98	1130	19.2	0
98	1130	19.3	0
98	1130	19.4	0
98	1130	19.5	0
98	1130	19.6	0
98	1130	19.7	0
98	1130	19.8	0
98	1130	19.9	0
98	1130	20	0
98	1130	20.1	0
98	1130	20.2	0
98	1130	20.3	0
98	1130	20.4	0
98	1130	20.5	0
98	1130	20.6	0
98	1130	20.7	0
98	1130	20.8	0
98	1130	20.9	0
98	1130	21	0
98	1130	21.1	0
98	1130	21.2	0
98	1130	21.3	0
98	1130	21.4	0
98	1130	21.5	0
98	1130	21.6	0
98	1130	21.7	0
98	1130	21.8	0
98	1130	21.9	0
98	1130	22	0
98	1130	22.1	0
98	1130	22.2	0
98	1130	22.3	0
98	1130	22.4	0
98	1130	22.5	0
98	1130	22.6	0
98	1130	22.7	0
98	1130	22.8	0
98	1130	22.9	0
98	1130	23	0
98	1130	23.1	0
98	1130	23.2	0
98	1130	23.3	0
98	1130	23.4	0
98	1130	23.5	0
98	1130	23.6	0
98	1130	23.7	0
98	1130	23.8	0
98	1130	23.9	0
98	1130	24	0
98	1130	24.1	0
98	1130	24.2	0
98	1130	24.3	0
98	1130	24.4	0
98	1130	24.5	0
98	1130	24.6	0
98	1130	24.7	0
98	1130	24.8	0
98	1130	24.9	0
98	1130	25	0
98	1130	25.1	0
98	1130	25.2	0
98	1130	25.3	0
98	1130	25.4	0
98	1130	25.5	0
98	1130	25.6	0
98	1130	25.7	0
98	1130	25.8	0
98	1130	25.9	0
98	1130	26	0
98	1130	26.1	0
98	1130	26.2	0
98	1130	26.3	0
98	1130	26.4	0
98	1130	26.5	0
98	1130	26.6	0
98	1130	26.7	0
98	1130	26.8	0
98	1130	26.9	0
98	1130	27	0
98	1130	27.1	0
98	1130	27.2	0
98	1130	27.3	0
98	1130	27.4	0
98	1130	27.5	0
98	1130	27.6	0
98	1130	27.7	0
98	1130	27.8	0
98	1130	27.9	0
98	1130	28	0
98	1130	28.1	0
98	1130	28.2	0
98	1130	28.3	0
98	1130	28.4	0
98	1130	28.5	0
98	1130	28.6	0
98	1130	28.7	0
98	1130	28.8	0
98	1130	28.9	0
98	1130	29	0
98	1130	29.1	0
98	1130	29.2	0
98	1130	29.3	0
98	1130	29.4	0
98	1130	29.5	0
98	1130	29.6	0
98	1130	29.7	0
98	1130	29.8	0
98	1130	29.9	0
98	1130	30	0
98	1130	30.1	0
98	1130	30.2	0
98	1130	30.3	0
98	1130	30.4	0
98	1130	30.5	0
98	1130	30.6	0
98	1130	30.7	0
98	1130	30.8	0
98	1130	30.9	0
98	1130	31	0
98	1130	31.1	0
98	1130	31.2	0
98	1130	31.3	0
98	1130	31.4	0
98	1130	31.5	0
98	1130	31.6	0
98	1130	31.7	0
98	1130	31.8	0
98	1130	31.9	0
98	1130	32	0
98	1130	32.1	0
98	1130	32.2	0
98	1130	32.3	0
98	1130	32.4	0
98	1130	32.5	0
98	1130	32.6	0
98	1130	32.7	0
98	1130	32.8	0
98	1130	32.9	0
98	1130	33	0
98	1130	33.1	0
98	1130	33.2	0
98	1130	33.3	0
98	1130	33.4	0
98	1130	33.5	0
98	1130	33.6	0
98	1130	33.7	0
98	1130	33.8	0
98	1130	33.9	0
98	1130	34	0
98	1130	34.1	0
98	1130	34.2	0
98	1130	34.3	0
98	1130	34.4	0
98	1130	34.5	0
98	1130	34.6	0
98	1130	34.7	0
98	1130	34.8	0
98	1130	34.9	0
98	1130	35	0
98	1130	35.1	0
98	1130	35.2	0
98	1130	35.3	0
98	1130	35.4	0
98	1130	35.5	0
98	1130	35.6	0
98	1130	35.7	0
98	1130	35.8	0
98	1130	35.9	0
98	1130	36	0
98	1130	36.1	0
98	1130	36.2	0
98	1130	36.3	0
98	1130	36.4	0
98	1130	36.5	0
98	1130	36.6	0
98	1130	36.7	0
98	1130	36.8	0
98	1130	36.9	0
98	1130	37	0
98	1130	37.1	0
98	1130	37.2	0
98	1130	37.3	0
98	1130	37.4	0
98	1130	37.5	0
98	1130	37.6	0
98	1130	37.7	0
98	1130	37.8	0
98	1130	37.9	0
98	1130	38	0
98	1130	38.1	0
98	1130	38.2	0
98	1130	38.3	0
98	1130	38.4	0
98	1130	38.5	0
98	1130	38.6	0
98	1130	38.7	0
98	1130	38.8	0
98	1130	38.9	0
98	1130	39	0
98	1130	39.1	0
98	1130	39.2	0
98	1130	39.3	0
98	1130	39.4	0
98	1130	39.5	0
98	1130	39.6	0
98	1130	39.7	0
98	1130	39.8	0
98	1130	39.9	0
98	1130	40	0
99	1130	0.1	0
99	1130	0.2	0
99	1130	0.3	0
99	1130	0.4	0
99	1130	0.5	0
99	1130	0.6	0
99	1130	0.7	0
99	1130	0.8	0
99	1130	0.9	0
99	1130	1	0
99	1130	1.1	0
99	1130	1.2	0
99	1130	1.3	0
99	1130	1.4	0
99	1130	1.5	0
99	1130	1.6	0
99	1130	1.7	0
99	1130	1.8	0
99	1130	1.9	0
99	1130	2	0
99	1130	2.1	0
99	1130	2.2	0
99	1130	2.3	0
99	1130	2.4	0
99	1130	2.5	0
99	1130	2.6	0
99	1130	2.7	0
99	1130	2.8	0
99	1130	2.9	0
99	1130	3	0
99	1130	3.1	0
99	1130	3.2	0
99	1130	3.3	0
99	1130	3.4	0
99	1130	3.5	0
99	1130	3.6	0
99	1130	3.7	0
99	1130	3.8	0
99	1130	3.9	0
99	1130	4	0
99	1130	4.1	0
99	1130	4.2	0
99	1130	4.3	0
99	1130	4.4	0
99	1130	4.5	0
99	1130	4.6	0
99	1130	4.7	0
99	1130	4.8	0
99	1130	4.9	0
99	1130	5	0
99	1130	5.1	0
99	1130	5.2	0
99	1130	5.3	0
99	1130	5.4	0
99	1130	5.5	0
99	1130	5.6	0
99	1130	5.7	0
99	1130	5.8	0
99	1130	5.9	0
99	1130	6	0
99	1130	6.1	0
99	1130	6.2	0
99	1130	6.3	0
99	1130	6.4	0
99	1130	6.5	0
99	1130	6.6	0
99	1130	6.7	0
99	1130	6.8	0
99	1130	6.9	0
99	1130	7	0
99	1130	7.1	0
99	1130	7.2	0
99	1130	7.3	0
99	1130	7.4	0
99	1130	7.5	0
99	1130	7.6	0
99	1130	7.7	0
99	1130	7.8	0
99	1130	7.9	0
99	1130	8	0
99	1130	8.1	0
99	1130	8.2	0
99	1130	8.3	0
99	1130	8.4	0
99	1130	8.5	0
99	1130	8.6	0
99	1130	8.7	0
99	1130	8.8	0
99	1130	8.9	0
99	1130	9	0
99	1130	9.1	0
99	1130	9.2	0
99	1130	9.3	0
99	1130	9.4	0
99	1130	9.5	0
99	1130	9.6	0
99	1130	9.7	0
99	1130	9.8	0
99	1130	9.9	0
99	1130	10	0
99	1130	10.1	0
99	1130	10.2	0
99	1130	10.3	0
99	1130	10.4	0
99	1130	10.5	0
99	1130	10.6	0
99	1130	10.7	0
99	1130	10.8	0
99	1130	10.9	0
99	1130	11	0
99	1130	11.1	0
99	1130	11.2	0
99	1130	11.3	0
99	1130	11.4	0
99	1130	11.5	0
99	1130	11.6	0
99	1130	11.7	0
99	1130	11.8	0
99	1130	11.9	0
99	1130	12	0
99	1130	12.1	0
99	1130	12.2	0
99	1130	12.3	0
99	1130	12.4	0
99	1130	12.5	0
99	1130	12.6	0
99	1130	12.7	0
99	1130	12.8	0
99	1130	12.9	0
99	1130	13	0
99	1130	13.1	0
99	1130	13.2	0
99	1130	13.3	0
99	1130	13.4	0
99	1130	13.5	0
99	1130	13.6	0
99	1130	13.7	0
99	1130	13.8	0
99	1130	13.9	0
99	1130	14	0
99	1130	14.1	0
99	1130	14.2	0
99	1130	14.3	0
99	1130	14.4	0
99	1130	14.5	0
99	1130	14.6	0
99	1130	14.7	0
99	1130	14.8	0
99	1130	14.9	0
99	1130	15	0
99	1130	15.1	0
99	1130	15.2	0
99	1130	15.3	0
99	1130	15.4	0
99	1130	15.5	0
99	1130	15.6	0
99	1130	15.7	0
99	1130	15.8	0
99	1130	15.9	0
99	1130	16	0
99	1130	16.1	0
99	1130	16.2	0
99	1130	16.3	0
99	1130	16.4	0
99	1130	16.5	0
99	1130	16.6	0
99	1130	16.7	0
99	1130	16.8	0
99	1130	16.9	0
99	1130	17	0
99	1130	17.1	0
99	1130	17.2	0
99	1130	17.3	0
99	1130	17.4	0
99	1130	17.5	0
99	1130	17.6	0
99	1130	17.7	0
99	1130	17.8	0
99	1130	17.9	0
99	1130	18	0
99	1130	18.1	0
99	1130	18.2	0
99	1130	18.3	0
99	1130	18.4	0
99	1130	18.5	0
99	1130	18.6	0
99	1130	18.7	0
99	1130	18.8	0
99	1130	18.9	0
99	1130	19	0
99	1130	19.1	0
99	1130	19.2	0
99	1130	19.3	0
99	1130	19.4	0
99	1130	19.5	0
99	1130	19.6	0
99	1130	19.7	0
99	1130	19.8	0
99	1130	19.9	0
99	1130	20	0
99	1130	20.1	0
99	1130	20.2	0
99	1130	20.3	0
99	1130	20.4	0
99	1130	20.5	0
99	1130	20.6	0
99	1130	20.7	0
99	1130	20.8	0
99	1130	20.9	0
99	1130	21	0
99	1130	21.1	0
99	1130	21.2	0
99	1130	21.3	0
99	1130	21.4	0
99	1130	21.5	0
99	1130	21.6	0
99	1130	21.7	0
99	1130	21.8	0
99	1130	21.9	0
99	1130	22	0
99	1130	22.1	0
99	1130	22.2	0
99	1130	22.3	0
99	1130	22.4	0
99	1130	22.5	0
99	1130	22.6	0
99	1130	22.7	0
99	1130	22.8	0
99	1130	22.9	0
99	1130	23	0
99	1130	23.1	0
99	1130	23.2	0
99	1130	23.3	0
99	1130	23.4	0
99	1130	23.5	0
99	1130	23.6	0
99	1130	23.7	0
99	1130	23.8	0
99	1130	23.9	0
99	1130	24	0
99	1130	24.1	0
99	1130	24.2	0
99	1130	24.3	0
99	1130	24.4	0
99	1130	24.5	0
99	1130	24.6	0
99	1130	24.7	0
99	1130	24.8	0
99	1130	24.9	0
99	1130	25	0
99	1130	25.1	0
99	1130	25.2	0
99	1130	25.3	0
99	1130	25.4	0
99	1130	25.5	0
99	1130	25.6	0
99	1130	25.7	0
99	1130	25.8	0
99	1130	25.9	0
99	1130	26	0
99	1130	26.1	0
99	1130	26.2	0
99	1130	26.3	0
99	1130	26.4	0
99	1130	26.5	0
99	1130	26.6	0
99	1130	26.7	0
99	1130	26.8	0
99	1130	26.9	0
99	1130	27	0
99	1130	27.1	0
99	1130	27.2	0
99	1130	27.3	0
99	1130	27.4	0
99	1130	27.5	0
99	1130	27.6	0
99	1130	27.7	0
99	1130	27.8	0
99	1130	27.9	0
99	1130	28	0
99	1130	28.1	0
99	1130	28.2	0
99	1130	28.3	0
99	1130	28.4	0
99	1130	28.5	0
99	1130	28.6	0
99	1130	28.7	0
99	1130	28.8	0
99	1130	28.9	0
99	1130	29	0
99	1130	29.1	0
99	1130	29.2	0
99	1130	29.3	0
99	1130	29.4	0
99	1130	29.5	0
99	1130	29.6	0
99	1130	29.7	0
99	1130	29.8	0
99	1130	29.9	0
99	1130	30	0
99	1130	30.1	0
99	1130	30.2	0
99	1130	30.3	0
99	1130	30.4	0
99	1130	30.5	0
99	1130	30.6	0
99	1130	30.7	0
99	1130	30.8	0
99	1130	30.9	0
99	1130	31	0
99	1130	31.1	0
99	1130	31.2	0
99	1130	31.3	0
99	1130	31.4	0
99	1130	31.5	0
99	1130	31.6	0
99	1130	31.7	0
99	1130	31.8	0
99	1130	31.9	0
99	1130	32	0
99	1130	32.1	0
99	1130	32.2	0
99	1130	32.3	0
99	1130	32.4	0
99	1130	32.5	0
99	1130	32.6	0
99	1130	32.7	0
99	1130	32.8	0
99	1130	32.9	0
99	1130	33	0
99	1130	33.1	0
99	1130	33.2	0
99	1130	33.3	0
99	1130	33.4	0
99	1130	33.5	0
99	1130	33.6	0
99	1130	33.7	0
99	1130	33.8	0
99	1130	33.9	0
99	1130	34	0
99	1130	34.1	0
99	1130	34.2	0
99	1130	34.3	0
99	1130	34.4	0
99	1130	34.5	0
99	1130	34.6	0
99	1130	34.7	0
99	1130	34.8	0
99	1130	34.9	0
99	1130	35	0
99	1130	35.1	0
99	1130	35.2	0
99	1130	35.3	0
99	1130	35.4	0
99	1130	35.5	0
99	1130	35.6	0
99	1130	35.7	0
99	1130	35.8	0
99	1130	35.9	0
99	1130	36	0
99	1130	36.1	0
99	1130	36.2	0
99	1130	36.3	0
99	1130	36.4	0
99	1130	36.5	0
99	1130	36.6	0
99	1130	36.7	0
99	1130	36.8	0
99	1130	36.9	0
99	1130	37	0
99	1130	37.1	0
99	1130	37.2	0
99	1130	37.3	0
99	1130	37.4	0
99	1130	37.5	0
99	1130	37.6	0
99	1130	37.7	0
99	1130	37.8	0
99	1130	37.9	0
99	1130	38	0
99	1130	38.1	0
99	1130	38.2	0
99	1130	38.3	0
99	1130	38.4	0
99	1130	38.5	0
99	1130	38.6	0
99	1130	38.7	0
99	1130	38.8	0
99	1130	38.9	0
99	1130	39	0
99	1130	39.1	0
99	1130	39.2	0
99	1130	39.3	0
99	1130	39.4	0
99	1130	39.5	0
99	1130	39.6	0
99	1130	39.7	0
99	1130	39.8	0
99	1130	39.9	0
99	1130	40	0

