version 3
run HilbertCurve-0-20250219-13:18:34-17312
attr configname HilbertCurve
attr datetime 20250219-13:18:34
attr datetimef 20250219-131834
attr experiment HilbertCurve
attr inifile omnetpp.ini
attr iterationvars ""
attr iterationvarsd ""
attr iterationvarsf ""
attr measurement ""
attr network WirelessB
attr processid 17312
attr repetition 0
attr replication #0
attr resultdir results
attr runnumber 0
attr seedset 0
config image-path ../../../inet4.5/images
config description "Configuring node movements"
config extends Wireless08
config *.hostR1.mobility.typename HilbertMobility
config *.hostR*.mobility.speed 30mps
config *.hostR*.mobility.networkHeight 675.0
config *.hostR*.mobility.networkWidth 850.0
config sim-time-limit 100.0s
config *.host*.wlan[0].queue.packetCapacity 10
config *.visualizer.mobilityVisualizer.displayVelocities true
config *.visualizer.mobilityVisualizer.displayMovementTrails true
config *.visualizer.*.mobilityVisualizer.displayOrientations true
config *.visualizer.*.mobilityVisualizer.orientationArcSize 0.25
config *.visualizer.*.mobilityVisualizer.orientationLineColor "\"black\""
config *.visualizer.*.mobilityVisualizer.orientationLineWidth 3
config *.visualizer.*.physicalLinkVisualizer.lineColor "\"purple\""
config *.visualizer.physicalLinkVisualizer.lineOpacity 1
config description "Modeling energy consumption"
config extends Wireless07
config *.host*.wlan[0].radio.energyConsumer.typename StateBasedEpEnergyConsumer
config *.host*.wlan[0].radio.energyConsumer.offPowerConsumption 0mW
config *.host*.wlan[0].radio.energyConsumer.sleepPowerConsumption 1mW
config *.host*.wlan[0].radio.energyConsumer.switchingPowerConsumption 1mW
config *.host*.wlan[0].radio.energyConsumer.receiverIdlePowerConsumption 2mW
config *.host*.wlan[0].radio.energyConsumer.receiverBusyPowerConsumption 5mW
config *.host*.wlan[0].radio.energyConsumer.receiverReceivingPowerConsumption 10mW
config *.host*.wlan[0].radio.energyConsumer.transmitterIdlePowerConsumption 2mW
config *.host*.wlan[0].radio.energyConsumer.transmitterTransmittingPowerConsumption 100mW
config *.host*.energyStorage.typename IdealEpEnergyStorage
config *.host*.wlan[0].radio.displayInterferenceRange false
config *.hostR1.wlan[0].radio.displayCommunicationRange false
config *.visualizer.mediumVisualizer.displaySignals false
config description "Turning on ACKs in CSMA"
config extends Wireless06
config *.host*.wlan[0].mac.useAck true
config description "Using CSMA to better utilize the medium"
config extends Wireless05
config *.host*.wlan[0].typename WirelessInterface
config *.host*.wlan[0].radio.typename UnitDiskRadio
config *.host*.wlan[0].mac.typename CsmaCaMac
config *.host*.wlan[0].mac.ackTimeout 300us
config *.host*.wlan[0].queue.typename DropTailQueue
config *.host*.wlan[0].queue.packetCapacity -1
config description "Taking interference into account"
config extends Wireless04
config *.host*.wlan[0].radio.receiver.ignoreInterference false
config *.host*.wlan[0].radio.transmitter.interferenceRange 500m
config *.hostA.wlan[0].radio.displayInterferenceRange true
config *.visualizer.dataLinkVisualizer.packetFilter "\"\""
config description "Setting up static routing"
config extends Wireless03
config *.host*.forwarding true
config *.configurator.config "xml(\"<config><interface hosts='**' address='10.0.0.x' netmask='255.255.255.0'/><autoroute metric='errorRate'/></config>\")"
config *.configurator.optimizeRoutes false
config *.host*.ipv4.routingTable.netmaskRoutes "\"\""
config *.visualizer.physicalLinkVisualizer.displayLinks true
config *.visualizer.dataLinkVisualizer.displayLinks true
config *.visualizer.networkRouteVisualizer.displayRoutes true
config *.visualizer.*LinkVisualizer.lineShift 0
config *.visualizer.networkRouteVisualizer.lineShift 0
config *.visualizer.networkRouteVisualizer.packetFilter "\"UDPData*\""
config description "Adding more nodes and decreasing the communication range"
config extends Wireless02
config network WirelessB
config *.host*.wlan[0].radio.transmitter.communicationRange 250m
config *.hostR1.wlan[0].radio.displayCommunicationRange true
config description "Setting up some animations"
config extends Wireless01
config *.hostA.wlan[0].radio.displayCommunicationRange true
config *.visualizer.sceneVisualizer.descriptionFigure "\"title\""
config *.visualizer.mediumVisualizer.displaySignals true
config *.visualizer.physicalLinkVisualizer.displayLinks true
config *.visualizer.physicalLinkVisualizer.packetFilter "\"UDPData*\""
config description "Two hosts communicating wirelessly"
config network WirelessA
config sim-time-limit 20s
config *.host*.ipv4.arp.typename GlobalArp
config *.hostA.numApps 1
config *.hostA.app[0].typename UdpBasicApp
config *.hostA.app[0].destAddresses "\"hostB\""
config *.hostA.app[0].destPort 5000
config *.hostA.app[0].messageLength 1000B
config *.hostA.app[0].sendInterval exponential(12ms)
config *.hostA.app[0].packetName "\"UDPData\""
config *.hostB.numApps 1
config *.hostB.app[0].typename UdpSink
config *.hostB.app[0].localPort 5000
config *.host*.wlan[0].typename AckingWirelessInterface
config *.host*.wlan[0].mac.useAck false
config *.host*.wlan[0].mac.fullDuplex false
config *.host*.wlan[0].radio.transmitter.communicationRange 500m
config *.host*.wlan[0].radio.receiver.ignoreInterference true
config *.host*.wlan[0].mac.headerLength 23B
config *.host*.**.bitrate 1Mbps

par WirelessB.visualizer.sceneVisualizer typename "\"inet.visualizer.canvas.scene.SceneCanvasVisualizer\""
par WirelessB.visualizer.sceneVisualizer visualizationTargetModule "\"^.^\""
par WirelessB.visualizer.sceneVisualizer visualizationSubjectModule "\"^.^\""
par WirelessB.visualizer.sceneVisualizer tags "\"\""
par WirelessB.visualizer.sceneVisualizer physicalEnvironmentModule "\"physicalEnvironment\""
par WirelessB.visualizer.sceneVisualizer networkNodeVisualizerModule "\"^.networkNodeVisualizer\""
par WirelessB.visualizer.sceneVisualizer axisLength "nan m"
attr mutable ""
attr unit m
par WirelessB.visualizer.sceneVisualizer animationSpeed 0
par WirelessB.visualizer.sceneVisualizer sceneMinX "nan m"
attr unit m
par WirelessB.visualizer.sceneVisualizer sceneMinY "nan m"
attr unit m
par WirelessB.visualizer.sceneVisualizer sceneMinZ "nan m"
attr unit m
par WirelessB.visualizer.sceneVisualizer sceneMaxX "nan m"
attr unit m
par WirelessB.visualizer.sceneVisualizer sceneMaxY "nan m"
attr unit m
par WirelessB.visualizer.sceneVisualizer sceneMaxZ "nan m"
attr unit m
par WirelessB.visualizer.sceneVisualizer zIndex 0
par WirelessB.visualizer.sceneVisualizer viewAngle "\"x right y down z out\""
attr mutable ""
par WirelessB.visualizer.sceneVisualizer viewScale "\"1 1\""
attr mutable ""
par WirelessB.visualizer.sceneVisualizer viewTranslation "\"0 0\""
attr mutable ""
par WirelessB.visualizer.sceneVisualizer descriptionFigure "\"title\""
par WirelessB.visualizer.physicalEnvironmentVisualizer typename "\"inet.visualizer.canvas.environment.PhysicalEnvironmentCanvasVisualizer\""
par WirelessB.visualizer.physicalEnvironmentVisualizer visualizationTargetModule "\"^.^\""
par WirelessB.visualizer.physicalEnvironmentVisualizer visualizationSubjectModule "\"^.^\""
par WirelessB.visualizer.physicalEnvironmentVisualizer tags "\"\""
par WirelessB.visualizer.physicalEnvironmentVisualizer physicalEnvironmentModule "\"physicalEnvironment\""
par WirelessB.visualizer.physicalEnvironmentVisualizer displayObjects true
par WirelessB.visualizer.physicalEnvironmentVisualizer zIndex 0
par WirelessB.visualizer.networkNodeVisualizer typename "\"inet.visualizer.canvas.scene.NetworkNodeCanvasVisualizer\""
par WirelessB.visualizer.networkNodeVisualizer visualizationTargetModule "\"^.^\""
par WirelessB.visualizer.networkNodeVisualizer visualizationSubjectModule "\"^.^\""
par WirelessB.visualizer.networkNodeVisualizer tags "\"\""
par WirelessB.visualizer.networkNodeVisualizer nodeFilter "\"*\""
attr mutable ""
par WirelessB.visualizer.networkNodeVisualizer annotationSpacing 4
par WirelessB.visualizer.networkNodeVisualizer placementPenalty 10
par WirelessB.visualizer.networkNodeVisualizer zIndex 0
par WirelessB.visualizer.networkConnectionVisualizer typename "\"inet.visualizer.canvas.scene.NetworkConnectionCanvasVisualizer\""
par WirelessB.visualizer.networkConnectionVisualizer visualizationTargetModule "\"^.^\""
par WirelessB.visualizer.networkConnectionVisualizer visualizationSubjectModule "\"^.^\""
par WirelessB.visualizer.networkConnectionVisualizer tags "\"\""
par WirelessB.visualizer.networkConnectionVisualizer displayNetworkConnections true
par WirelessB.visualizer.networkConnectionVisualizer nodeFilter "\"\""
attr mutable ""
par WirelessB.visualizer.networkConnectionVisualizer lineColor "\"black\""
par WirelessB.visualizer.networkConnectionVisualizer lineStyle "\"solid\""
par WirelessB.visualizer.networkConnectionVisualizer lineWidth 1
par WirelessB.visualizer.networkConnectionVisualizer zIndex 0
par WirelessB.visualizer.mobilityVisualizer typename "\"inet.visualizer.canvas.mobility.MobilityCanvasVisualizer\""
par WirelessB.visualizer.mobilityVisualizer visualizationTargetModule "\"^.^\""
par WirelessB.visualizer.mobilityVisualizer visualizationSubjectModule "\"^.^\""
par WirelessB.visualizer.mobilityVisualizer tags "\"\""
par WirelessB.visualizer.mobilityVisualizer networkNodeVisualizerModule "\"^.networkNodeVisualizer\""
par WirelessB.visualizer.mobilityVisualizer displayMobility true
par WirelessB.visualizer.mobilityVisualizer animationSpeed 0
par WirelessB.visualizer.mobilityVisualizer moduleFilter "\"**.mobility\""
attr mutable ""
par WirelessB.visualizer.mobilityVisualizer displayPositions false
par WirelessB.visualizer.mobilityVisualizer positionCircleRadius 4
par WirelessB.visualizer.mobilityVisualizer positionCircleLineWidth 1
par WirelessB.visualizer.mobilityVisualizer positionCircleLineColor "\"dark\""
attr enum light,dark
par WirelessB.visualizer.mobilityVisualizer positionCircleFillColor "\"dark\""
attr enum light,dark
par WirelessB.visualizer.mobilityVisualizer displayOrientations false
par WirelessB.visualizer.mobilityVisualizer orientationPieRadius 32
par WirelessB.visualizer.mobilityVisualizer orientationPieSize 0.2
par WirelessB.visualizer.mobilityVisualizer orientationPieOpacity 0.25
par WirelessB.visualizer.mobilityVisualizer orientationLineColor "\"black\""
par WirelessB.visualizer.mobilityVisualizer orientationLineStyle "\"solid\""
par WirelessB.visualizer.mobilityVisualizer orientationLineWidth 1
par WirelessB.visualizer.mobilityVisualizer orientationFillColor "\"blue\""
par WirelessB.visualizer.mobilityVisualizer displayVelocities true
par WirelessB.visualizer.mobilityVisualizer velocityArrowScale 1
par WirelessB.visualizer.mobilityVisualizer velocityLineColor "\"black\""
par WirelessB.visualizer.mobilityVisualizer velocityLineStyle "\"solid\""
par WirelessB.visualizer.mobilityVisualizer velocityLineWidth 1
par WirelessB.visualizer.mobilityVisualizer displayMovementTrails true
par WirelessB.visualizer.mobilityVisualizer movementTrailLineColor "\"dark\""
attr enum light,dark
par WirelessB.visualizer.mobilityVisualizer movementTrailLineStyle "\"solid\""
par WirelessB.visualizer.mobilityVisualizer movementTrailLineWidth 1
par WirelessB.visualizer.mobilityVisualizer trailLength 100
par WirelessB.visualizer.mobilityVisualizer zIndex 0
par WirelessB.visualizer.statisticVisualizer typename "\"inet.visualizer.canvas.common.StatisticCanvasVisualizer\""
par WirelessB.visualizer.statisticVisualizer visualizationTargetModule "\"^.^\""
par WirelessB.visualizer.statisticVisualizer visualizationSubjectModule "\"^.^\""
par WirelessB.visualizer.statisticVisualizer tags "\"\""
par WirelessB.visualizer.statisticVisualizer networkNodeVisualizerModule "\"^.networkNodeVisualizer\""
par WirelessB.visualizer.statisticVisualizer displayStatistics true
par WirelessB.visualizer.statisticVisualizer signalName "\"\""
par WirelessB.visualizer.statisticVisualizer statisticName "\"\""
par WirelessB.visualizer.statisticVisualizer statisticUnit "\"\""
par WirelessB.visualizer.statisticVisualizer statisticExpression "\"\""
par WirelessB.visualizer.statisticVisualizer sourceFilter "\"**\""
attr mutable ""
par WirelessB.visualizer.statisticVisualizer format "\"%n: %v %u\""
attr mutable ""
par WirelessB.visualizer.statisticVisualizer unit "\"\""
par WirelessB.visualizer.statisticVisualizer font "\"<default>\""
par WirelessB.visualizer.statisticVisualizer textColor "\"black\""
par WirelessB.visualizer.statisticVisualizer backgroundColor "\"white\""
par WirelessB.visualizer.statisticVisualizer opacity 1
par WirelessB.visualizer.statisticVisualizer placementHint "\"top\""
par WirelessB.visualizer.statisticVisualizer placementPriority 0
par WirelessB.visualizer.statisticVisualizer zIndex 10
par WirelessB.visualizer.statisticVisualizer propertyName "\"\""
par WirelessB.visualizer.statisticVisualizer propertyIndex "\"\""
par WirelessB.visualizer.infoVisualizer typename "\"inet.visualizer.canvas.common.InfoCanvasVisualizer\""
par WirelessB.visualizer.infoVisualizer visualizationTargetModule "\"^.^\""
par WirelessB.visualizer.infoVisualizer visualizationSubjectModule "\"^.^\""
par WirelessB.visualizer.infoVisualizer tags "\"\""
par WirelessB.visualizer.infoVisualizer networkNodeVisualizerModule "\"^.networkNodeVisualizer\""
par WirelessB.visualizer.infoVisualizer displayInfos true
par WirelessB.visualizer.infoVisualizer modules "\"\""
attr mutable ""
par WirelessB.visualizer.infoVisualizer format "\"%t\""
attr mutable ""
par WirelessB.visualizer.infoVisualizer font "\"<default>\""
par WirelessB.visualizer.infoVisualizer textColor "\"black\""
par WirelessB.visualizer.infoVisualizer backgroundColor "\"white\""
par WirelessB.visualizer.infoVisualizer opacity 1
par WirelessB.visualizer.infoVisualizer placementHint "\"top\""
par WirelessB.visualizer.infoVisualizer placementPriority 0
par WirelessB.visualizer.infoVisualizer zIndex 10
par WirelessB.visualizer.energyStorageVisualizer typename "\"inet.visualizer.canvas.power.EnergyStorageCanvasVisualizer\""
par WirelessB.visualizer.energyStorageVisualizer visualizationTargetModule "\"^.^\""
par WirelessB.visualizer.energyStorageVisualizer visualizationSubjectModule "\"^.^\""
par WirelessB.visualizer.energyStorageVisualizer tags "\"\""
par WirelessB.visualizer.energyStorageVisualizer networkNodeVisualizerModule "\"^.networkNodeVisualizer\""
par WirelessB.visualizer.energyStorageVisualizer displayEnergyStorages false
par WirelessB.visualizer.energyStorageVisualizer energyStorageFilter "\"**\""
par WirelessB.visualizer.energyStorageVisualizer color "\"green\""
par WirelessB.visualizer.energyStorageVisualizer width 8
par WirelessB.visualizer.energyStorageVisualizer height 24
par WirelessB.visualizer.energyStorageVisualizer spacing 2
par WirelessB.visualizer.energyStorageVisualizer placementHint "\"right\""
par WirelessB.visualizer.energyStorageVisualizer placementPriority 0
par WirelessB.visualizer.energyStorageVisualizer zIndex 10
par WirelessB.visualizer.mediumVisualizer typename "\"inet.visualizer.canvas.physicallayer.MediumCanvasVisualizer\""
par WirelessB.visualizer.mediumVisualizer visualizationTargetModule "\"^.^\""
par WirelessB.visualizer.mediumVisualizer visualizationSubjectModule "\"^.^\""
par WirelessB.visualizer.mediumVisualizer tags "\"\""
par WirelessB.visualizer.mediumVisualizer mediumModule "\"radioMedium\""
par WirelessB.visualizer.mediumVisualizer networkNodeVisualizerModule "\"^.networkNodeVisualizer\""
par WirelessB.visualizer.mediumVisualizer nodeFilter "\"*\""
attr mutable ""
par WirelessB.visualizer.mediumVisualizer interfaceFilter "\"*\""
attr mutable ""
par WirelessB.visualizer.mediumVisualizer packetFilter "(omnetpp::cValueHolder)holder: \"*\""
attr mutable ""
par WirelessB.visualizer.mediumVisualizer displaySignals false
par WirelessB.visualizer.mediumVisualizer signalColor "\"dark\""
attr enum light,dark
par WirelessB.visualizer.mediumVisualizer signalPropagationAnimationSpeed "nan "
attr mutable ""
par WirelessB.visualizer.mediumVisualizer signalPropagationAnimationTime 1s
attr unit s
par WirelessB.visualizer.mediumVisualizer signalPropagationAdditionalTime 0s
attr unit s
par WirelessB.visualizer.mediumVisualizer signalTransmissionAnimationSpeed "nan "
attr mutable ""
par WirelessB.visualizer.mediumVisualizer signalTransmissionAnimationTime 1s
attr unit s
par WirelessB.visualizer.mediumVisualizer signalAnimationSpeedChangeTimeMode "\"realTime\""
attr enum realTime,animationTime,simulationTime
par WirelessB.visualizer.mediumVisualizer signalAnimationSpeedChangeTime 1s
attr unit s
par WirelessB.visualizer.mediumVisualizer displaySignalDepartures false
par WirelessB.visualizer.mediumVisualizer signalDepartureImage "\"misc/signal_departure.png\""
par WirelessB.visualizer.mediumVisualizer signalDeparturePlacementHint "\"topCenter\""
par WirelessB.visualizer.mediumVisualizer signalDeparturePlacementPriority 1
par WirelessB.visualizer.mediumVisualizer displaySignalArrivals false
par WirelessB.visualizer.mediumVisualizer signalArrivalImage "\"misc/signal_arrival.png\""
par WirelessB.visualizer.mediumVisualizer signalArrivalPlacementHint "\"topCenter\""
par WirelessB.visualizer.mediumVisualizer signalArrivalPlacementPriority -1
par WirelessB.visualizer.mediumVisualizer displayCommunicationRanges false
par WirelessB.visualizer.mediumVisualizer communicationRangeLineColor "\"blue\""
par WirelessB.visualizer.mediumVisualizer communicationRangeLineStyle "\"solid\""
par WirelessB.visualizer.mediumVisualizer communicationRangeLineWidth 1
par WirelessB.visualizer.mediumVisualizer displayInterferenceRanges false
par WirelessB.visualizer.mediumVisualizer interferenceRangeLineColor "\"gray\""
par WirelessB.visualizer.mediumVisualizer interferenceRangeLineStyle "\"solid\""
par WirelessB.visualizer.mediumVisualizer interferenceRangeLineWidth 1
par WirelessB.visualizer.mediumVisualizer autoPowerAxis true
par WirelessB.visualizer.mediumVisualizer signalMinPower "inf dBmW"
attr unit dBmW
par WirelessB.visualizer.mediumVisualizer signalMaxPower 0dBmW
attr unit dBmW
par WirelessB.visualizer.mediumVisualizer signalMinPowerDensity "inf dBmWpMHz"
attr unit dBmWpMHz
par WirelessB.visualizer.mediumVisualizer signalMaxPowerDensity "-inf dBmWpMHz"
attr unit dBmWpMHz
par WirelessB.visualizer.mediumVisualizer autoTimeAxis true
par WirelessB.visualizer.mediumVisualizer signalMinTime 0s
attr unit s
par WirelessB.visualizer.mediumVisualizer signalMaxTime 0s
attr unit s
par WirelessB.visualizer.mediumVisualizer autoFrequencyAxis true
par WirelessB.visualizer.mediumVisualizer signalMinFrequency "inf Hz"
attr unit Hz
par WirelessB.visualizer.mediumVisualizer signalMaxFrequency "-inf Hz"
attr unit Hz
par WirelessB.visualizer.mediumVisualizer displayMainPowerDensityMap false
par WirelessB.visualizer.mediumVisualizer mainPowerDensityMapPixmapDensity 1
par WirelessB.visualizer.mediumVisualizer mainPowerDensityMapMinX 0
par WirelessB.visualizer.mediumVisualizer mainPowerDensityMapMaxX "nan "
par WirelessB.visualizer.mediumVisualizer mainPowerDensityMapMinY 0
par WirelessB.visualizer.mediumVisualizer mainPowerDensityMapMaxY "nan "
par WirelessB.visualizer.mediumVisualizer mainPowerDensityMapZ 0
par WirelessB.visualizer.mediumVisualizer mainPowerDensityMapFigureXTickCount 3
par WirelessB.visualizer.mediumVisualizer mainPowerDensityMapFigureYTickCount 3
par WirelessB.visualizer.mediumVisualizer displayPowerDensityMaps false
par WirelessB.visualizer.mediumVisualizer powerDensityMapMode "\"auto\""
attr enum total,signal,auto
par WirelessB.visualizer.mediumVisualizer powerDensityMapPixelMode "\"mean\""
attr enum sample,partition,mean
par WirelessB.visualizer.mediumVisualizer powerDensityMapApproximationSize 10
par WirelessB.visualizer.mediumVisualizer powerDensityMapCenterFrequency "nan Hz"
attr mutable ""
attr unit Hz
par WirelessB.visualizer.mediumVisualizer powerDensityMapBandwidth 0Hz
attr mutable ""
attr unit Hz
par WirelessB.visualizer.mediumVisualizer powerDensityMapFigureWidth 200
par WirelessB.visualizer.mediumVisualizer powerDensityMapFigureHeight 120
par WirelessB.visualizer.mediumVisualizer powerDensityMapPixmapWidth 200
par WirelessB.visualizer.mediumVisualizer powerDensityMapPixmapHeight 120
par WirelessB.visualizer.mediumVisualizer powerDensityMapZ 0
par WirelessB.visualizer.mediumVisualizer powerDensityMapFigureXTickCount 3
par WirelessB.visualizer.mediumVisualizer powerDensityMapFigureYTickCount 3
par WirelessB.visualizer.mediumVisualizer displaySpectrums false
par WirelessB.visualizer.mediumVisualizer spectrumMode "\"auto\""
attr enum total,signal,auto
par WirelessB.visualizer.mediumVisualizer spectrumFigureWidth 200
par WirelessB.visualizer.mediumVisualizer spectrumFigureHeight 120
par WirelessB.visualizer.mediumVisualizer spectrumFigureXTickCount 3
par WirelessB.visualizer.mediumVisualizer spectrumFigureYTickCount 5
par WirelessB.visualizer.mediumVisualizer spectrumFigureInterpolationSize 5
par WirelessB.visualizer.mediumVisualizer spectrumPlacementHint "\"bottomCenter\""
par WirelessB.visualizer.mediumVisualizer spectrumPlacementPriority -1
par WirelessB.visualizer.mediumVisualizer displaySpectrograms false
par WirelessB.visualizer.mediumVisualizer spectrogramMode "\"auto\""
attr enum total,signal,auto
par WirelessB.visualizer.mediumVisualizer spectrogramPixelMode "\"mean\""
attr enum sample,partition,mean
par WirelessB.visualizer.mediumVisualizer spectrogramFigureWidth 200
par WirelessB.visualizer.mediumVisualizer spectrogramFigureHeight 120
par WirelessB.visualizer.mediumVisualizer spectrogramPixmapWidth 200
par WirelessB.visualizer.mediumVisualizer spectrogramPixmapHeight 120
par WirelessB.visualizer.mediumVisualizer spectrogramFigureXTickCount 3
par WirelessB.visualizer.mediumVisualizer spectrogramFigureYTickCount 5
par WirelessB.visualizer.mediumVisualizer spectrogramPlacementHint "\"bottomCenter\""
par WirelessB.visualizer.mediumVisualizer spectrogramPlacementPriority -1
par WirelessB.visualizer.mediumVisualizer zIndex 0
par WirelessB.visualizer.mediumVisualizer signalShape "\"ring\""
attr enum ring,sphere
par WirelessB.visualizer.mediumVisualizer signalOpacity 0.5
par WirelessB.visualizer.mediumVisualizer signalRingCount 20
par WirelessB.visualizer.mediumVisualizer signalRingSize 50m
attr unit m
par WirelessB.visualizer.mediumVisualizer signalFadingDistance 50m
attr unit m
par WirelessB.visualizer.mediumVisualizer signalFadingFactor 1.2
par WirelessB.visualizer.mediumVisualizer signalWaveCount 20
par WirelessB.visualizer.mediumVisualizer signalWaveLength 50m
attr unit m
par WirelessB.visualizer.mediumVisualizer signalWaveWidth 10m
attr unit m
par WirelessB.visualizer.mediumVisualizer signalWaveFadingAnimationSpeedFactor 1
par WirelessB.visualizer.mediumVisualizer displayCommunicationHeat false
par WirelessB.visualizer.obstacleLossVisualizer typename "\"inet.visualizer.canvas.physicallayer.TracingObstacleLossCanvasVisualizer\""
par WirelessB.visualizer.obstacleLossVisualizer visualizationTargetModule "\"^.^\""
par WirelessB.visualizer.obstacleLossVisualizer visualizationSubjectModule "\"^.^\""
par WirelessB.visualizer.obstacleLossVisualizer tags "\"\""
par WirelessB.visualizer.obstacleLossVisualizer displayIntersections false
par WirelessB.visualizer.obstacleLossVisualizer intersectionLineColor "\"red\""
par WirelessB.visualizer.obstacleLossVisualizer intersectionLineStyle "\"solid\""
par WirelessB.visualizer.obstacleLossVisualizer intersectionLineWidth 1
par WirelessB.visualizer.obstacleLossVisualizer displayFaceNormalVectors false
par WirelessB.visualizer.obstacleLossVisualizer faceNormalLineColor "\"grey\""
par WirelessB.visualizer.obstacleLossVisualizer faceNormalLineStyle "\"solid\""
par WirelessB.visualizer.obstacleLossVisualizer faceNormalLineWidth 1
par WirelessB.visualizer.obstacleLossVisualizer fadeOutMode "\"realTime\""
attr enum realTime,animationTime,simulationTime
par WirelessB.visualizer.obstacleLossVisualizer fadeOutTime 1s
attr unit s
par WirelessB.visualizer.obstacleLossVisualizer fadeOutAnimationSpeed 0
par WirelessB.visualizer.obstacleLossVisualizer zIndex 0
par WirelessB.visualizer.packetDropVisualizer typename "\"inet.visualizer.canvas.common.PacketDropCanvasVisualizer\""
par WirelessB.visualizer.packetDropVisualizer visualizationTargetModule "\"^.^\""
par WirelessB.visualizer.packetDropVisualizer visualizationSubjectModule "\"^.^\""
par WirelessB.visualizer.packetDropVisualizer tags "\"\""
par WirelessB.visualizer.packetDropVisualizer displayPacketDrops false
par WirelessB.visualizer.packetDropVisualizer nodeFilter "\"*\""
attr mutable ""
par WirelessB.visualizer.packetDropVisualizer interfaceFilter "\"*\""
attr mutable ""
par WirelessB.visualizer.packetDropVisualizer packetFilter "(omnetpp::cValueHolder)holder: \"*\""
attr mutable ""
par WirelessB.visualizer.packetDropVisualizer detailsFilter "\"*\""
attr mutable ""
par WirelessB.visualizer.packetDropVisualizer icon "\"msg/packet_s\""
par WirelessB.visualizer.packetDropVisualizer iconTintAmount 1
par WirelessB.visualizer.packetDropVisualizer iconTintColor "\"dark\""
par WirelessB.visualizer.packetDropVisualizer labelFormat "\"%n\""
attr mutable ""
par WirelessB.visualizer.packetDropVisualizer labelFont "\"<default>\""
par WirelessB.visualizer.packetDropVisualizer labelColor "\"black\""
par WirelessB.visualizer.packetDropVisualizer fadeOutMode "\"realTime\""
attr enum realTime,animationTime,simulationTime
par WirelessB.visualizer.packetDropVisualizer fadeOutTime 1s
attr unit s
par WirelessB.visualizer.packetDropVisualizer fadeOutAnimationSpeed 0
par WirelessB.visualizer.packetDropVisualizer zIndex 10
par WirelessB.visualizer.packetDropVisualizer dx 32
par WirelessB.visualizer.packetDropVisualizer dy 64
par WirelessB.visualizer.packetFlowVisualizer typename "\"inet.visualizer.canvas.flow.PacketFlowCanvasVisualizer\""
par WirelessB.visualizer.packetFlowVisualizer visualizationTargetModule "\"^.^\""
par WirelessB.visualizer.packetFlowVisualizer visualizationSubjectModule "\"^.^\""
par WirelessB.visualizer.packetFlowVisualizer tags "\"\""
par WirelessB.visualizer.packetFlowVisualizer displayRoutes false
par WirelessB.visualizer.packetFlowVisualizer startPathSignal "\"packetFlowStarted\""
par WirelessB.visualizer.packetFlowVisualizer extendPathSignal "\"packetReceivedFromLower\""
par WirelessB.visualizer.packetFlowVisualizer endPathSignal "\"packetFlowEnded\""
par WirelessB.visualizer.packetFlowVisualizer nodeFilter "\"*\""
attr mutable ""
par WirelessB.visualizer.packetFlowVisualizer packetFilter "(omnetpp::cValueHolder)holder: \"*\""
attr mutable ""
par WirelessB.visualizer.packetFlowVisualizer lineColor "\"dark\""
attr enum light,dark
par WirelessB.visualizer.packetFlowVisualizer lineStyle "\"dashed\""
par WirelessB.visualizer.packetFlowVisualizer lineWidth 3
par WirelessB.visualizer.packetFlowVisualizer lineSmooth false
par WirelessB.visualizer.packetFlowVisualizer lineShift 16
par WirelessB.visualizer.packetFlowVisualizer lineShiftMode "\"normal\""
par WirelessB.visualizer.packetFlowVisualizer lineContactSpacing 3
par WirelessB.visualizer.packetFlowVisualizer lineContactMode "\"rectangular\""
attr enum circular,rectangular
par WirelessB.visualizer.packetFlowVisualizer labelFormat "\"%L %p pk (%l)\""
par WirelessB.visualizer.packetFlowVisualizer labelFont "\"<default>, 8px\""
par WirelessB.visualizer.packetFlowVisualizer labelColor "\"\""
par WirelessB.visualizer.packetFlowVisualizer fadeOutMode "\"realTime\""
attr enum realTime,animationTime,simulationTime
par WirelessB.visualizer.packetFlowVisualizer fadeOutTime 0s
attr unit s
par WirelessB.visualizer.packetFlowVisualizer fadeOutAnimationSpeed 0
par WirelessB.visualizer.packetFlowVisualizer zIndex 4
par WirelessB.visualizer.queueVisualizer typename "\"inet.visualizer.canvas.common.QueueCanvasVisualizer\""
par WirelessB.visualizer.queueVisualizer visualizationTargetModule "\"^.^\""
par WirelessB.visualizer.queueVisualizer visualizationSubjectModule "\"^.^\""
par WirelessB.visualizer.queueVisualizer tags "\"\""
par WirelessB.visualizer.queueVisualizer networkNodeVisualizerModule "\"^.networkNodeVisualizer\""
par WirelessB.visualizer.queueVisualizer displayQueues false
par WirelessB.visualizer.queueVisualizer queueFilter "\"**\""
par WirelessB.visualizer.queueVisualizer color "\"blue\""
par WirelessB.visualizer.queueVisualizer width 8
par WirelessB.visualizer.queueVisualizer height 24
par WirelessB.visualizer.queueVisualizer spacing 2
par WirelessB.visualizer.queueVisualizer placementHint "\"right\""
par WirelessB.visualizer.queueVisualizer placementPriority 0
par WirelessB.visualizer.queueVisualizer zIndex 10
par WirelessB.visualizer.gateScheduleVisualizer typename "\"inet.visualizer.canvas.common.GateScheduleCanvasVisualizer\""
par WirelessB.visualizer.gateScheduleVisualizer visualizationTargetModule "\"^.^\""
par WirelessB.visualizer.gateScheduleVisualizer visualizationSubjectModule "\"^.^\""
par WirelessB.visualizer.gateScheduleVisualizer tags "\"\""
par WirelessB.visualizer.gateScheduleVisualizer networkNodeVisualizerModule "\"^.networkNodeVisualizer\""
par WirelessB.visualizer.gateScheduleVisualizer displayGateSchedules false
par WirelessB.visualizer.gateScheduleVisualizer labelFormat "\"%i %D\""
par WirelessB.visualizer.gateScheduleVisualizer gateFilter "\"**\""
par WirelessB.visualizer.gateScheduleVisualizer width 100
par WirelessB.visualizer.gateScheduleVisualizer height 8
par WirelessB.visualizer.gateScheduleVisualizer spacing 2
par WirelessB.visualizer.gateScheduleVisualizer placementHint "\"right\""
par WirelessB.visualizer.gateScheduleVisualizer placementPriority 0
par WirelessB.visualizer.gateScheduleVisualizer displayDuration 0s
attr mutable ""
attr unit s
par WirelessB.visualizer.gateScheduleVisualizer currentTimePosition 50
par WirelessB.visualizer.gateScheduleVisualizer zIndex 10
par WirelessB.visualizer.radioVisualizer typename "\"inet.visualizer.canvas.physicallayer.RadioCanvasVisualizer\""
par WirelessB.visualizer.radioVisualizer visualizationTargetModule "\"^.^\""
par WirelessB.visualizer.radioVisualizer visualizationSubjectModule "\"^.^\""
par WirelessB.visualizer.radioVisualizer tags "\"\""
par WirelessB.visualizer.radioVisualizer networkNodeVisualizerModule "\"^.networkNodeVisualizer\""
par WirelessB.visualizer.radioVisualizer displayRadios false
par WirelessB.visualizer.radioVisualizer displayRadioMode true
par WirelessB.visualizer.radioVisualizer displayReceptionState true
par WirelessB.visualizer.radioVisualizer displayTransmissionState true
par WirelessB.visualizer.radioVisualizer displayAntennaLobes false
par WirelessB.visualizer.radioVisualizer radioFilter "\"**\""
attr mutable ""
par WirelessB.visualizer.radioVisualizer radioModeImages "\"block/process_vs block/timer_vs block/wrx_vs block/wtx_vs block/wrxtx_vs block/cogwheel_vs\""
par WirelessB.visualizer.radioVisualizer receptionStateImages "\"- - misc/receiving misc/receiving\""
par WirelessB.visualizer.radioVisualizer transmissionStateImages "\"- - misc/transmitting\""
par WirelessB.visualizer.radioVisualizer width 16
par WirelessB.visualizer.radioVisualizer height 16
par WirelessB.visualizer.radioVisualizer placementHint "\"bottomRight\""
par WirelessB.visualizer.radioVisualizer placementPriority 0
par WirelessB.visualizer.radioVisualizer antennaLobeNormalize false
par WirelessB.visualizer.radioVisualizer antennaLobeRelativeLabels false
par WirelessB.visualizer.radioVisualizer antennaLobePlaneGlobal true
par WirelessB.visualizer.radioVisualizer antennaLobePlane "\"view\""
attr enum view,xy,xz,yz
par WirelessB.visualizer.radioVisualizer antennaLobeMode "\"logarithmic\""
attr enum logarithmic,linear
par WirelessB.visualizer.radioVisualizer antennaLobeLogarithmicBase 10
par WirelessB.visualizer.radioVisualizer antennaLobeLogarithmicScale 100
par WirelessB.visualizer.radioVisualizer antennaLobeRadius 100
par WirelessB.visualizer.radioVisualizer antennaLobeStep 10deg
attr unit deg
par WirelessB.visualizer.radioVisualizer antennaLobeOpacity 0.25
par WirelessB.visualizer.radioVisualizer antennaLobeLineSmooth true
par WirelessB.visualizer.radioVisualizer antennaLobeLineColor "\"black\""
par WirelessB.visualizer.radioVisualizer antennaLobeLineStyle "\"solid\""
par WirelessB.visualizer.radioVisualizer antennaLobeLineWidth 1
par WirelessB.visualizer.radioVisualizer antennaLobeFillColor "\"white\""
par WirelessB.visualizer.radioVisualizer zIndex 10
par WirelessB.visualizer.physicalLinkVisualizer typename "\"inet.visualizer.canvas.physicallayer.PhysicalLinkCanvasVisualizer\""
par WirelessB.visualizer.physicalLinkVisualizer visualizationTargetModule "\"^.^\""
par WirelessB.visualizer.physicalLinkVisualizer visualizationSubjectModule "\"^.^\""
par WirelessB.visualizer.physicalLinkVisualizer tags "\"\""
par WirelessB.visualizer.physicalLinkVisualizer displayLinks true
par WirelessB.visualizer.physicalLinkVisualizer activityLevel "\"service\""
attr enum service,peer,protocol
par WirelessB.visualizer.physicalLinkVisualizer nodeFilter "\"*\""
attr mutable ""
par WirelessB.visualizer.physicalLinkVisualizer interfaceFilter "\"*\""
attr mutable ""
par WirelessB.visualizer.physicalLinkVisualizer packetFilter "(omnetpp::cValueHolder)holder: \"UDPData*\""
attr mutable ""
par WirelessB.visualizer.physicalLinkVisualizer lineColor "\"olive\""
par WirelessB.visualizer.physicalLinkVisualizer lineStyle "\"dotted\""
par WirelessB.visualizer.physicalLinkVisualizer lineWidth 3
par WirelessB.visualizer.physicalLinkVisualizer lineShift 0
par WirelessB.visualizer.physicalLinkVisualizer lineShiftMode "\"normal\""
par WirelessB.visualizer.physicalLinkVisualizer lineContactSpacing 3
par WirelessB.visualizer.physicalLinkVisualizer lineContactMode "\"rectangular\""
attr enum circular,rectangular
par WirelessB.visualizer.physicalLinkVisualizer labelFormat "\"%n\""
par WirelessB.visualizer.physicalLinkVisualizer labelFont "\"<default>, 8px\""
par WirelessB.visualizer.physicalLinkVisualizer labelColor "\"olive\""
par WirelessB.visualizer.physicalLinkVisualizer fadeOutMode "\"realTime\""
attr enum realTime,animationTime,simulationTime
par WirelessB.visualizer.physicalLinkVisualizer fadeOutTime 1s
attr unit s
par WirelessB.visualizer.physicalLinkVisualizer fadeOutAnimationSpeed 0
par WirelessB.visualizer.physicalLinkVisualizer holdAnimationTime 0s
attr unit s
par WirelessB.visualizer.physicalLinkVisualizer zIndex 1
par WirelessB.visualizer.interfaceTableVisualizer typename "\"inet.visualizer.canvas.linklayer.InterfaceTableCanvasVisualizer\""
par WirelessB.visualizer.interfaceTableVisualizer visualizationTargetModule "\"^.^\""
par WirelessB.visualizer.interfaceTableVisualizer visualizationSubjectModule "\"^.^\""
par WirelessB.visualizer.interfaceTableVisualizer tags "\"\""
par WirelessB.visualizer.interfaceTableVisualizer networkNodeVisualizerModule "\"^.networkNodeVisualizer\""
par WirelessB.visualizer.interfaceTableVisualizer displayInterfaceTables false
par WirelessB.visualizer.interfaceTableVisualizer displayWiredInterfacesAtConnections true
par WirelessB.visualizer.interfaceTableVisualizer displayBackground false
par WirelessB.visualizer.interfaceTableVisualizer nodeFilter "\"*\""
attr mutable ""
par WirelessB.visualizer.interfaceTableVisualizer interfaceFilter "\"not(lo*)\""
attr mutable ""
par WirelessB.visualizer.interfaceTableVisualizer format "\"%N %\\\\%a%/%l\""
attr mutable ""
par WirelessB.visualizer.interfaceTableVisualizer placementHint "\"top\""
par WirelessB.visualizer.interfaceTableVisualizer placementPriority 0
par WirelessB.visualizer.interfaceTableVisualizer font "\"<default>\""
par WirelessB.visualizer.interfaceTableVisualizer textColor "\"#005030\""
par WirelessB.visualizer.interfaceTableVisualizer backgroundColor "\"white\""
par WirelessB.visualizer.interfaceTableVisualizer opacity 1
par WirelessB.visualizer.interfaceTableVisualizer zIndex 10
par WirelessB.visualizer.dataLinkVisualizer typename "\"inet.visualizer.canvas.linklayer.DataLinkCanvasVisualizer\""
par WirelessB.visualizer.dataLinkVisualizer visualizationTargetModule "\"^.^\""
par WirelessB.visualizer.dataLinkVisualizer visualizationSubjectModule "\"^.^\""
par WirelessB.visualizer.dataLinkVisualizer tags "\"\""
par WirelessB.visualizer.dataLinkVisualizer displayLinks true
par WirelessB.visualizer.dataLinkVisualizer activityLevel "\"service\""
attr enum service,peer,protocol
par WirelessB.visualizer.dataLinkVisualizer nodeFilter "\"*\""
attr mutable ""
par WirelessB.visualizer.dataLinkVisualizer interfaceFilter "\"*\""
attr mutable ""
par WirelessB.visualizer.dataLinkVisualizer packetFilter "(omnetpp::cValueHolder)holder: \"\""
attr mutable ""
par WirelessB.visualizer.dataLinkVisualizer lineColor "\"darkcyan\""
par WirelessB.visualizer.dataLinkVisualizer lineStyle "\"solid\""
par WirelessB.visualizer.dataLinkVisualizer lineWidth 3
par WirelessB.visualizer.dataLinkVisualizer lineShift 0
par WirelessB.visualizer.dataLinkVisualizer lineShiftMode "\"normal\""
par WirelessB.visualizer.dataLinkVisualizer lineContactSpacing 3
par WirelessB.visualizer.dataLinkVisualizer lineContactMode "\"rectangular\""
attr enum circular,rectangular
par WirelessB.visualizer.dataLinkVisualizer labelFormat "\"%n\""
par WirelessB.visualizer.dataLinkVisualizer labelFont "\"<default>, 8px\""
par WirelessB.visualizer.dataLinkVisualizer labelColor "\"darkcyan\""
par WirelessB.visualizer.dataLinkVisualizer fadeOutMode "\"realTime\""
attr enum realTime,animationTime,simulationTime
par WirelessB.visualizer.dataLinkVisualizer fadeOutTime 1s
attr unit s
par WirelessB.visualizer.dataLinkVisualizer fadeOutAnimationSpeed 0
par WirelessB.visualizer.dataLinkVisualizer holdAnimationTime 0s
attr unit s
par WirelessB.visualizer.dataLinkVisualizer zIndex 2
par WirelessB.visualizer.linkBreakVisualizer typename "\"inet.visualizer.canvas.linklayer.LinkBreakCanvasVisualizer\""
par WirelessB.visualizer.linkBreakVisualizer visualizationTargetModule "\"^.^\""
par WirelessB.visualizer.linkBreakVisualizer visualizationSubjectModule "\"^.^\""
par WirelessB.visualizer.linkBreakVisualizer tags "\"\""
par WirelessB.visualizer.linkBreakVisualizer displayLinkBreaks false
par WirelessB.visualizer.linkBreakVisualizer nodeFilter "\"*\""
attr mutable ""
par WirelessB.visualizer.linkBreakVisualizer interfaceFilter "\"*\""
attr mutable ""
par WirelessB.visualizer.linkBreakVisualizer packetFilter "(omnetpp::cValueHolder)holder: \"*\""
attr mutable ""
par WirelessB.visualizer.linkBreakVisualizer icon "\"status/stop\""
par WirelessB.visualizer.linkBreakVisualizer iconTintAmount 0
par WirelessB.visualizer.linkBreakVisualizer iconTintColor "\"\""
par WirelessB.visualizer.linkBreakVisualizer fadeOutMode "\"realTime\""
attr enum realTime,animationTime,simulationTime
par WirelessB.visualizer.linkBreakVisualizer fadeOutTime 1s
attr unit s
par WirelessB.visualizer.linkBreakVisualizer fadeOutAnimationSpeed 0
par WirelessB.visualizer.linkBreakVisualizer zIndex 2
par WirelessB.visualizer.ieee80211Visualizer typename "\"inet.visualizer.canvas.linklayer.Ieee80211CanvasVisualizer\""
par WirelessB.visualizer.ieee80211Visualizer visualizationTargetModule "\"^.^\""
par WirelessB.visualizer.ieee80211Visualizer visualizationSubjectModule "\"^.^\""
par WirelessB.visualizer.ieee80211Visualizer tags "\"\""
par WirelessB.visualizer.ieee80211Visualizer networkNodeVisualizerModule "\"^.networkNodeVisualizer\""
par WirelessB.visualizer.ieee80211Visualizer displayAssociations false
par WirelessB.visualizer.ieee80211Visualizer nodeFilter "\"*\""
attr mutable ""
par WirelessB.visualizer.ieee80211Visualizer interfaceFilter "\"*\""
attr mutable ""
par WirelessB.visualizer.ieee80211Visualizer minPower -85dBm
attr unit dBm
par WirelessB.visualizer.ieee80211Visualizer maxPower -50dBm
attr unit dBm
par WirelessB.visualizer.ieee80211Visualizer icons "\"misc/signal_power_0 misc/signal_power_1 misc/signal_power_2 misc/signal_power_3\""
par WirelessB.visualizer.ieee80211Visualizer iconColor "\"dark\""
attr enum light,dark
par WirelessB.visualizer.ieee80211Visualizer labelFont "\"<default>\""
par WirelessB.visualizer.ieee80211Visualizer labelColor "\"black\""
par WirelessB.visualizer.ieee80211Visualizer placementHint "\"top\""
par WirelessB.visualizer.ieee80211Visualizer placementPriority 0
par WirelessB.visualizer.ieee80211Visualizer zIndex 2
par WirelessB.visualizer.networkRouteVisualizer typename "\"inet.visualizer.canvas.networklayer.NetworkRouteCanvasVisualizer\""
par WirelessB.visualizer.networkRouteVisualizer visualizationTargetModule "\"^.^\""
par WirelessB.visualizer.networkRouteVisualizer visualizationSubjectModule "\"^.^\""
par WirelessB.visualizer.networkRouteVisualizer tags "\"\""
par WirelessB.visualizer.networkRouteVisualizer displayRoutes true
par WirelessB.visualizer.networkRouteVisualizer startPathSignal "\"packetReceivedFromUpper\""
par WirelessB.visualizer.networkRouteVisualizer extendPathSignal "\"packetReceivedFromLower\""
par WirelessB.visualizer.networkRouteVisualizer endPathSignal "\"packetSentToUpper\""
par WirelessB.visualizer.networkRouteVisualizer nodeFilter "\"*\""
attr mutable ""
par WirelessB.visualizer.networkRouteVisualizer packetFilter "(omnetpp::cValueHolder)holder: \"UDPData*\""
attr mutable ""
par WirelessB.visualizer.networkRouteVisualizer lineColor "\"dark\""
attr enum light,dark
par WirelessB.visualizer.networkRouteVisualizer lineStyle "\"solid\""
par WirelessB.visualizer.networkRouteVisualizer lineWidth 3
par WirelessB.visualizer.networkRouteVisualizer lineSmooth false
par WirelessB.visualizer.networkRouteVisualizer lineShift 0
par WirelessB.visualizer.networkRouteVisualizer lineShiftMode "\"normal\""
par WirelessB.visualizer.networkRouteVisualizer lineContactSpacing 3
par WirelessB.visualizer.networkRouteVisualizer lineContactMode "\"rectangular\""
attr enum circular,rectangular
par WirelessB.visualizer.networkRouteVisualizer labelFormat "\"%n\""
par WirelessB.visualizer.networkRouteVisualizer labelFont "\"<default>, 8px\""
par WirelessB.visualizer.networkRouteVisualizer labelColor "\"\""
par WirelessB.visualizer.networkRouteVisualizer fadeOutMode "\"realTime\""
attr enum realTime,animationTime,simulationTime
par WirelessB.visualizer.networkRouteVisualizer fadeOutTime 1s
attr unit s
par WirelessB.visualizer.networkRouteVisualizer fadeOutAnimationSpeed 0
par WirelessB.visualizer.networkRouteVisualizer zIndex 3
par WirelessB.visualizer.routingTableVisualizer typename "\"inet.visualizer.canvas.networklayer.RoutingTableCanvasVisualizer\""
par WirelessB.visualizer.routingTableVisualizer visualizationTargetModule "\"^.^\""
par WirelessB.visualizer.routingTableVisualizer visualizationSubjectModule "\"^.^\""
par WirelessB.visualizer.routingTableVisualizer tags "\"\""
par WirelessB.visualizer.routingTableVisualizer displayRoutingTables false
par WirelessB.visualizer.routingTableVisualizer displayRoutesIndividually true
par WirelessB.visualizer.routingTableVisualizer displayLabels true
par WirelessB.visualizer.routingTableVisualizer destinationFilter "\"*\""
attr mutable ""
par WirelessB.visualizer.routingTableVisualizer nodeFilter "\"*\""
attr mutable ""
par WirelessB.visualizer.routingTableVisualizer lineColor "\"black\""
par WirelessB.visualizer.routingTableVisualizer lineStyle "\"solid\""
par WirelessB.visualizer.routingTableVisualizer lineWidth 2
par WirelessB.visualizer.routingTableVisualizer lineShift 16
par WirelessB.visualizer.routingTableVisualizer lineShiftMode "\"normal\""
par WirelessB.visualizer.routingTableVisualizer lineContactSpacing 3
par WirelessB.visualizer.routingTableVisualizer lineContactMode "\"rectangular\""
attr enum circular,rectangular
par WirelessB.visualizer.routingTableVisualizer labelFormat "\"%d/%m -> %g (%n)\""
attr mutable ""
par WirelessB.visualizer.routingTableVisualizer labelFont "\"<default>, 8px\""
par WirelessB.visualizer.routingTableVisualizer labelColor "\"black\""
par WirelessB.visualizer.routingTableVisualizer zIndex 0
par WirelessB.visualizer.transportRouteVisualizer typename "\"inet.visualizer.canvas.transportlayer.TransportRouteCanvasVisualizer\""
par WirelessB.visualizer.transportRouteVisualizer visualizationTargetModule "\"^.^\""
par WirelessB.visualizer.transportRouteVisualizer visualizationSubjectModule "\"^.^\""
par WirelessB.visualizer.transportRouteVisualizer tags "\"\""
par WirelessB.visualizer.transportRouteVisualizer displayRoutes false
par WirelessB.visualizer.transportRouteVisualizer startPathSignal "\"packetReceivedFromUpper\""
par WirelessB.visualizer.transportRouteVisualizer extendPathSignal "\"packetReceivedFromLower\""
par WirelessB.visualizer.transportRouteVisualizer endPathSignal "\"packetSentToUpper\""
par WirelessB.visualizer.transportRouteVisualizer nodeFilter "\"*\""
attr mutable ""
par WirelessB.visualizer.transportRouteVisualizer packetFilter "(omnetpp::cValueHolder)holder: \"*\""
attr mutable ""
par WirelessB.visualizer.transportRouteVisualizer lineColor "\"dark\""
attr enum light,dark
par WirelessB.visualizer.transportRouteVisualizer lineStyle "\"solid\""
par WirelessB.visualizer.transportRouteVisualizer lineWidth 3
par WirelessB.visualizer.transportRouteVisualizer lineSmooth false
par WirelessB.visualizer.transportRouteVisualizer lineShift 16
par WirelessB.visualizer.transportRouteVisualizer lineShiftMode "\"normal\""
par WirelessB.visualizer.transportRouteVisualizer lineContactSpacing 3
par WirelessB.visualizer.transportRouteVisualizer lineContactMode "\"rectangular\""
attr enum circular,rectangular
par WirelessB.visualizer.transportRouteVisualizer labelFormat "\"%n\""
par WirelessB.visualizer.transportRouteVisualizer labelFont "\"<default>, 8px\""
par WirelessB.visualizer.transportRouteVisualizer labelColor "\"\""
par WirelessB.visualizer.transportRouteVisualizer fadeOutMode "\"realTime\""
attr enum realTime,animationTime,simulationTime
par WirelessB.visualizer.transportRouteVisualizer fadeOutTime 1s
attr unit s
par WirelessB.visualizer.transportRouteVisualizer fadeOutAnimationSpeed 0
par WirelessB.visualizer.transportRouteVisualizer zIndex 4
par WirelessB.visualizer.transportConnectionVisualizer typename "\"inet.visualizer.canvas.transportlayer.TransportConnectionCanvasVisualizer\""
par WirelessB.visualizer.transportConnectionVisualizer visualizationTargetModule "\"^.^\""
par WirelessB.visualizer.transportConnectionVisualizer visualizationSubjectModule "\"^.^\""
par WirelessB.visualizer.transportConnectionVisualizer tags "\"\""
par WirelessB.visualizer.transportConnectionVisualizer networkNodeVisualizerModule "\"^.networkNodeVisualizer\""
par WirelessB.visualizer.transportConnectionVisualizer displayTransportConnections false
par WirelessB.visualizer.transportConnectionVisualizer sourceNodeFilter "\"*\""
attr mutable ""
par WirelessB.visualizer.transportConnectionVisualizer sourcePortFilter "\"*\""
attr mutable ""
par WirelessB.visualizer.transportConnectionVisualizer destinationNodeFilter "\"*\""
attr mutable ""
par WirelessB.visualizer.transportConnectionVisualizer destinationPortFilter "\"*\""
attr mutable ""
par WirelessB.visualizer.transportConnectionVisualizer icon "\"misc/marker_s\""
par WirelessB.visualizer.transportConnectionVisualizer iconColor "\"dark\""
attr enum light,dark
par WirelessB.visualizer.transportConnectionVisualizer labelFont "\"<default>\""
par WirelessB.visualizer.transportConnectionVisualizer labelColor "\"black\""
par WirelessB.visualizer.transportConnectionVisualizer placementHint "\"top\""
par WirelessB.visualizer.transportConnectionVisualizer placementPriority 0
par WirelessB.visualizer.transportConnectionVisualizer zIndex 4
par WirelessB.visualizer.failureProtectionConfigurationVisualizer typename "\"inet.visualizer.canvas.configurator.FailureProtectionConfigurationCanvasVisualizer\""
par WirelessB.visualizer.failureProtectionConfigurationVisualizer visualizationTargetModule "\"^.^\""
par WirelessB.visualizer.failureProtectionConfigurationVisualizer visualizationSubjectModule "\"^.^\""
par WirelessB.visualizer.failureProtectionConfigurationVisualizer tags "\"\""
par WirelessB.visualizer.failureProtectionConfigurationVisualizer displayTrees false
par WirelessB.visualizer.failureProtectionConfigurationVisualizer lineColor "\"dark\""
attr enum light,dark
par WirelessB.visualizer.failureProtectionConfigurationVisualizer lineStyle "\"solid\""
par WirelessB.visualizer.failureProtectionConfigurationVisualizer lineWidth 3
par WirelessB.visualizer.failureProtectionConfigurationVisualizer lineSmooth false
par WirelessB.visualizer.failureProtectionConfigurationVisualizer lineShift 16
par WirelessB.visualizer.failureProtectionConfigurationVisualizer lineShiftMode "\"normal\""
par WirelessB.visualizer.failureProtectionConfigurationVisualizer lineContactSpacing 3
par WirelessB.visualizer.failureProtectionConfigurationVisualizer lineContactMode "\"rectangular\""
attr enum circular,rectangular
par WirelessB.visualizer.failureProtectionConfigurationVisualizer failureProtectionConfiguratorModule "\"failureProtectionConfigurator\""
par WirelessB.visualizer.failureProtectionConfigurationVisualizer streamFilter "\"*\""
par WirelessB.visualizer.failureProtectionConfigurationVisualizer zIndex 3
par WirelessB.visualizer.streamRedundancyConfigurationVisualizer typename "\"inet.visualizer.canvas.configurator.StreamRedundancyConfigurationCanvasVisualizer\""
par WirelessB.visualizer.streamRedundancyConfigurationVisualizer visualizationTargetModule "\"^.^\""
par WirelessB.visualizer.streamRedundancyConfigurationVisualizer visualizationSubjectModule "\"^.^\""
par WirelessB.visualizer.streamRedundancyConfigurationVisualizer tags "\"\""
par WirelessB.visualizer.streamRedundancyConfigurationVisualizer displayTrees false
par WirelessB.visualizer.streamRedundancyConfigurationVisualizer lineColor "\"dark\""
attr enum light,dark
par WirelessB.visualizer.streamRedundancyConfigurationVisualizer lineStyle "\"solid\""
par WirelessB.visualizer.streamRedundancyConfigurationVisualizer lineWidth 3
par WirelessB.visualizer.streamRedundancyConfigurationVisualizer lineSmooth false
par WirelessB.visualizer.streamRedundancyConfigurationVisualizer lineShift 16
par WirelessB.visualizer.streamRedundancyConfigurationVisualizer lineShiftMode "\"normal\""
par WirelessB.visualizer.streamRedundancyConfigurationVisualizer lineContactSpacing 3
par WirelessB.visualizer.streamRedundancyConfigurationVisualizer lineContactMode "\"rectangular\""
attr enum circular,rectangular
par WirelessB.visualizer.streamRedundancyConfigurationVisualizer streamRedundancyConfiguratorModule "\"streamRedundancyConfigurator\""
par WirelessB.visualizer.streamRedundancyConfigurationVisualizer streamFilter "\"*\""
par WirelessB.visualizer.streamRedundancyConfigurationVisualizer zIndex 3
par WirelessB.visualizer typename "\"inet.visualizer.canvas.integrated.IntegratedCanvasVisualizer\""
par WirelessB.configurator typename "\"inet.networklayer.configurator.ipv4.Ipv4NetworkConfigurator\""
par WirelessB.configurator minLinkWeight 0.001
par WirelessB.configurator configureIsolatedNetworksSeparatly false
par WirelessB.configurator config "<config>...</config> at content:1"
par WirelessB.configurator assignAddresses true
par WirelessB.configurator assignUniqueAddresses true
par WirelessB.configurator assignDisjunctSubnetAddresses true
par WirelessB.configurator addStaticRoutes true
par WirelessB.configurator addDefaultRoutes true
par WirelessB.configurator addSubnetRoutes true
par WirelessB.configurator addDirectRoutes true
par WirelessB.configurator optimizeRoutes false
par WirelessB.configurator dumpTopology false
par WirelessB.configurator dumpLinks false
par WirelessB.configurator dumpAddresses false
par WirelessB.configurator dumpRoutes false
par WirelessB.configurator dumpConfig "\"\""
par WirelessB.radioMedium.propagation typename "\"inet.physicallayer.wireless.common.propagation.ConstantSpeedPropagation\""
par WirelessB.radioMedium.propagation propagationSpeed 2.99792e+08mps
attr unit mps
par WirelessB.radioMedium.propagation ignoreMovementDuringTransmission true
par WirelessB.radioMedium.propagation ignoreMovementDuringPropagation true
par WirelessB.radioMedium.propagation ignoreMovementDuringReception true
scalar WirelessB.radioMedium.propagation "Arrival computation count" 191240
par WirelessB.radioMedium.analogModel typename "\"inet.physicallayer.wireless.unitdisk.UnitDiskAnalogModel\""
par WirelessB.radioMedium.pathLoss typename "\"inet.physicallayer.wireless.common.pathloss.FreeSpacePathLoss\""
par WirelessB.radioMedium.pathLoss alpha 2
par WirelessB.radioMedium.pathLoss systemLoss 0dB
attr unit dB
par WirelessB.radioMedium.mediumLimitCache typename "\"inet.physicallayer.wireless.common.medium.MediumLimitCache\""
par WirelessB.radioMedium.mediumLimitCache centerFrequency "nan Hz"
attr unit Hz
par WirelessB.radioMedium.mediumLimitCache maxSpeed "nan mps"
attr unit mps
par WirelessB.radioMedium.mediumLimitCache maxTransmissionPower "nan W"
attr unit W
par WirelessB.radioMedium.mediumLimitCache minInterferencePower "nan dBm"
attr unit dBm
par WirelessB.radioMedium.mediumLimitCache minReceptionPower "nan dBm"
attr unit dBm
par WirelessB.radioMedium.mediumLimitCache maxAntennaGain 0dB
attr unit dB
par WirelessB.radioMedium.mediumLimitCache minInterferenceTime 1e-12s
attr unit s
par WirelessB.radioMedium.mediumLimitCache maxTransmissionDuration 0.01s
attr unit s
par WirelessB.radioMedium.mediumLimitCache maxCommunicationRange "nan m"
attr unit m
par WirelessB.radioMedium.mediumLimitCache maxInterferenceRange "nan m"
attr unit m
par WirelessB.radioMedium.communicationCache typename "\"inet.physicallayer.wireless.common.communicationcache.VectorCommunicationCache\""
par WirelessB.radioMedium typename "\"inet.physicallayer.wireless.unitdisk.UnitDiskRadioMedium\""
par WirelessB.radioMedium physicalEnvironmentModule "\"physicalEnvironment\""
par WirelessB.radioMedium signalAnalogRepresentation "\"unitDisk\""
attr enum unitDisk,scalar,dimensional
par WirelessB.radioMedium rangeFilter "\"\""
par WirelessB.radioMedium radioModeFilter false
par WirelessB.radioMedium listeningFilter false
par WirelessB.radioMedium macAddressFilter false
par WirelessB.radioMedium recordTransmissionLog false
par WirelessB.radioMedium recordReceptionLog false
scalar WirelessB.radioMedium "transmission count" 23896
scalar WirelessB.radioMedium "signal send count" 191168
scalar WirelessB.radioMedium "reception computation count" 191168
scalar WirelessB.radioMedium "interference computation count" 565888
scalar WirelessB.radioMedium "reception decision computation count" 76155
scalar WirelessB.radioMedium "listening decision computation count" 303029
scalar WirelessB.radioMedium "reception cache hit" 81.783409264382
attr unit %
scalar WirelessB.radioMedium "interference cache hit" 66.666666666667
attr unit %
scalar WirelessB.radioMedium "noise cache hit" 0
attr unit %
scalar WirelessB.radioMedium "snir cache hit" 50
attr unit %
scalar WirelessB.radioMedium "reception decision cache hit" 50
attr unit %
scalar WirelessB.radioMedium "reception result cache hit" 0
attr unit %
par WirelessB.hostA.radioIn[0].channel typename "\"ned.IdealChannel\""
par WirelessB.hostA.energyStorage typename "\"inet.power.storage.IdealEpEnergyStorage\""
scalar WirelessB.hostA.energyStorage residualEnergyCapacity:last -4.6353895090414
attr interpolationmode linear
attr recordingmode last
attr source residualEnergyCapacityChanged
attr title "Residual energy capacity, last"
attr unit J
par WirelessB.hostA.mobility typename "\"inet.mobility.static.StationaryMobility\""
par WirelessB.hostA.mobility subjectModule "\"^\""
par WirelessB.hostA.mobility coordinateSystemModule "\"\""
par WirelessB.hostA.mobility displayStringTextFormat "\"p: %p\\nv: %v\""
attr mutable ""
par WirelessB.hostA.mobility updateDisplayString true
par WirelessB.hostA.mobility constraintAreaMinX "-inf m"
attr unit m
par WirelessB.hostA.mobility constraintAreaMinY "-inf m"
attr unit m
par WirelessB.hostA.mobility constraintAreaMinZ "-inf m"
attr unit m
par WirelessB.hostA.mobility constraintAreaMaxX "inf m"
attr unit m
par WirelessB.hostA.mobility constraintAreaMaxY "inf m"
attr unit m
par WirelessB.hostA.mobility constraintAreaMaxZ "inf m"
attr unit m
par WirelessB.hostA.mobility initialX "nan m"
attr unit m
par WirelessB.hostA.mobility initialY "nan m"
attr unit m
par WirelessB.hostA.mobility initialZ 0m
attr unit m
par WirelessB.hostA.mobility initialLatitude "nan deg"
attr unit deg
par WirelessB.hostA.mobility initialLongitude "nan deg"
attr unit deg
par WirelessB.hostA.mobility initialAltitude 0m
attr unit m
par WirelessB.hostA.mobility initialHeading 0deg
attr unit deg
par WirelessB.hostA.mobility initialElevation 0deg
attr unit deg
par WirelessB.hostA.mobility initialBank 0deg
attr unit deg
par WirelessB.hostA.mobility initFromDisplayString true
par WirelessB.hostA.mobility updateFromDisplayString true
par WirelessB.hostA.interfaceTable typename "\"inet.networklayer.common.InterfaceTable\""
par WirelessB.hostA.interfaceTable displayAddresses false
par WirelessB.hostA.cb typename "\"inet.common.MessageDispatcher\""
par WirelessB.hostA.cb displayStringTextFormat "\"processed %p pk (%l)\""
par WirelessB.hostA.cb forwardServiceRegistration true
par WirelessB.hostA.cb forwardProtocolRegistration true
par WirelessB.hostA.bl typename "\"inet.common.MessageDispatcher\""
par WirelessB.hostA.bl displayStringTextFormat "\"processed %p pk (%l)\""
par WirelessB.hostA.bl forwardServiceRegistration true
par WirelessB.hostA.bl forwardProtocolRegistration true
par WirelessB.hostA.li typename "\"inet.common.MessageDispatcher\""
par WirelessB.hostA.li displayStringTextFormat "\"processed %p pk (%l)\""
par WirelessB.hostA.li forwardServiceRegistration true
par WirelessB.hostA.li forwardProtocolRegistration true
par WirelessB.hostA.lo[0].upperLayerIn.channel typename "\"ned.IdealChannel\""
par WirelessB.hostA.lo[0].lo.upperLayerOut.channel typename "\"ned.IdealChannel\""
par WirelessB.hostA.lo[0].lo typename "\"inet.linklayer.loopback.Loopback\""
par WirelessB.hostA.lo[0].lo interfaceTableModule "\"WirelessB.hostA.interfaceTable\""
par WirelessB.hostA.lo[0].lo mtu 4470B
attr unit B
scalar WirelessB.hostA.lo[0].lo rcvdPkFromHl:count 0
attr interpolationmode none
attr recordingmode count
attr source packetReceivedFromUpper
attr title "packets received from higher layer, count"
scalar WirelessB.hostA.lo[0].lo rcvdPkFromHl:sum(packetBytes) 0
attr interpolationmode none
attr recordingmode sum(packetBytes)
attr source packetReceivedFromUpper
attr title "packets received from higher layer, sum(packetBytes)"
scalar WirelessB.hostA.lo[0].lo passedUpPk:count 0
attr interpolationmode none
attr recordingmode count
attr source packetSentToUpper
attr title "packets passed to higher layer, count"
scalar WirelessB.hostA.lo[0].lo passedUpPk:sum(packetBytes) 0
attr interpolationmode none
attr recordingmode sum(packetBytes)
attr source packetSentToUpper
attr title "packets passed to higher layer, sum(packetBytes)"
par WirelessB.hostA.lo[0] typename "\"inet.linklayer.loopback.LoopbackInterface\""
par WirelessB.hostA.lo[0] displayStringTextFormat "\"%a (%i)\\n%m\""
par WirelessB.hostA.lo[0] recordPcap false
par WirelessB.hostA.lo[0] numPcapRecorders 0
par WirelessB.hostA.lo[0] interfaceTableModule "\"WirelessB.hostA.interfaceTable\""
scalar WirelessB.hostA.lo[0] packetDropInterfaceDown:count 0
attr interpolationmode none
attr recordingmode count
attr source packetDropReasonIsInterfaceDown(packetDropped)
attr title "packet drops: interface down, count"
scalar WirelessB.hostA.lo[0] packetDropInterfaceDown:sum(packetBytes) 0
attr interpolationmode none
attr recordingmode sum(packetBytes)
attr source packetDropReasonIsInterfaceDown(packetDropped)
attr title "packet drops: interface down, sum(packetBytes)"
scalar WirelessB.hostA.lo[0] packetDropNoCarrier:count 0
attr interpolationmode none
attr recordingmode count
attr source packetDropReasonIsNoCarrier(packetDropped)
attr title "packet drops: no carrier, count"
scalar WirelessB.hostA.lo[0] packetDropNoCarrier:sum(packetBytes) 0
attr interpolationmode none
attr recordingmode sum(packetBytes)
attr source packetDropReasonIsNoCarrier(packetDropped)
attr title "packet drops: no carrier, sum(packetBytes)"
par WirelessB.hostA.wlan[0].radioIn.channel typename "\"ned.IdealChannel\""
par WirelessB.hostA.wlan[0].mac.upperLayerOut.channel typename "\"ned.IdealChannel\""
par WirelessB.hostA.wlan[0].upperLayerIn.channel typename "\"ned.IdealChannel\""
par WirelessB.hostA.wlan[0].queue typename "\"inet.queueing.queue.DropTailQueue\""
par WirelessB.hostA.wlan[0].queue displayStringTextFormat "\"contains %p pk (%l) pushed %u\\npulled %o removed %r dropped %d\""
par WirelessB.hostA.wlan[0].queue packetCapacity 10
par WirelessB.hostA.wlan[0].queue dataCapacity -1b
attr unit b
par WirelessB.hostA.wlan[0].queue dropperClass "\"inet::queueing::PacketAtCollectionEndDropper\""
par WirelessB.hostA.wlan[0].queue comparatorClass "\"\""
par WirelessB.hostA.wlan[0].queue bufferModule "\"\""
scalar WirelessB.hostA.wlan[0].queue queueLength:last 9
attr autoWarmupFilter false
attr interpolationmode sample-hold
attr recordingmode last
attr source "warmup(atomic(constant0(packetPushEnded) + count(packetPushStarted) - count(packetPulled) - count(packetRemoved) - count(packetDropped)))"
attr title "queue length, last"
attr unit pk
scalar WirelessB.hostA.wlan[0].queue queueLength:max 10
attr autoWarmupFilter false
attr interpolationmode sample-hold
attr recordingmode max
attr source "warmup(atomic(constant0(packetPushEnded) + count(packetPushStarted) - count(packetPulled) - count(packetRemoved) - count(packetDropped)))"
attr title "queue length, max"
attr unit pk
scalar WirelessB.hostA.wlan[0].queue queueLength:timeavg 8.8973815665044
attr autoWarmupFilter false
attr interpolationmode sample-hold
attr recordingmode timeavg
attr source "warmup(atomic(constant0(packetPushEnded) + count(packetPushStarted) - count(packetPulled) - count(packetRemoved) - count(packetDropped)))"
attr title "queue length, timeavg"
attr unit pk
scalar WirelessB.hostA.wlan[0].queue queueBitLength:last 74016
attr autoWarmupFilter false
attr interpolationmode sample-hold
attr recordingmode last
attr source "warmup(atomic(constant0(packetPushEnded) + sum(packetLength(packetPushStarted)) - sum(packetLength(packetPulled)) - sum(packetLength(packetRemoved)) - sum(packetLength(packetDropped))))"
attr title "queue bit length, last"
attr unit b
scalar WirelessB.hostA.wlan[0].queue queueBitLength:max 82240
attr autoWarmupFilter false
attr interpolationmode sample-hold
attr recordingmode max
attr source "warmup(atomic(constant0(packetPushEnded) + sum(packetLength(packetPushStarted)) - sum(packetLength(packetPulled)) - sum(packetLength(packetRemoved)) - sum(packetLength(packetDropped))))"
attr title "queue bit length, max"
attr unit b
scalar WirelessB.hostA.wlan[0].queue queueBitLength:timeavg 73172.066002933
attr autoWarmupFilter false
attr interpolationmode sample-hold
attr recordingmode timeavg
attr source "warmup(atomic(constant0(packetPushEnded) + sum(packetLength(packetPushStarted)) - sum(packetLength(packetPulled)) - sum(packetLength(packetRemoved)) - sum(packetLength(packetDropped))))"
attr title "queue bit length, timeavg"
attr unit b
statistic WirelessB.hostA.wlan[0].queue queueingTime:histogram
field count 4595
field mean 0.19340637197963
field stddev 0.078045829496201
field min 0
field max 0.483825916728
field sum 888.70227924638
field sqrsum 199.86343359811
attr interpolationmode none
attr recordingmode histogram
attr source queueingTime(packetPulled)
attr title "queueing times"
attr unit s
bin	-inf	0
bin	0	19
bin	0.01	20
bin	0.02	23
bin	0.03	38
bin	0.04	26
bin	0.05	52
bin	0.06	51
bin	0.07	107
bin	0.08	106
bin	0.09	129
bin	0.1	127
bin	0.11	148
bin	0.12	167
bin	0.13	174
bin	0.14	175
bin	0.15	183
bin	0.16	185
bin	0.17	225
bin	0.18	215
bin	0.19	260
bin	0.2	240
bin	0.21	257
bin	0.22	236
bin	0.23	220
bin	0.24	196
bin	0.25	194
bin	0.26	131
bin	0.27	114
bin	0.28	103
bin	0.29	70
bin	0.3	65
bin	0.31	72
bin	0.32	45
bin	0.33	42
bin	0.34	48
bin	0.35	25
bin	0.36	28
bin	0.37	26
bin	0.38	17
bin	0.39	12
bin	0.4	5
bin	0.41	6
bin	0.42	4
bin	0.43	2
bin	0.44	1
bin	0.45	3
bin	0.46	1
bin	0.47	1
bin	0.48	1
bin	0.49	0
bin	0.5	0
bin	0.51	0
scalar WirelessB.hostA.wlan[0].queue outgoingPackets:count 4595
attr recordingmode count
attr source packetPulled
attr title "outgoing packets, count"
attr unit pk
scalar WirelessB.hostA.wlan[0].queue outgoingPacketLengths:sum 37789280
attr interpolationmode none
attr recordingmode sum
attr source packetLength(packetPulled)
attr title "outgoing packet lengths, sum"
attr unit b
statistic WirelessB.hostA.wlan[0].queue outgoingPacketLengths:histogram
field count 4595
field mean 8224
field stddev 0
field min 8224
field max 8224
field sum 37789280
field sqrsum 310779038720
attr interpolationmode none
attr recordingmode histogram
attr source packetLength(packetPulled)
attr title "outgoing packet lengths"
attr unit b
bin	-inf	0
bin	8223	0
bin	8224	4595
bin	8225	0
statistic WirelessB.hostA.wlan[0].queue flowQueueingTime:histogram
field count 0
field mean nan
field stddev nan
field min nan
field max nan
field sum 0
field sqrsum 0
attr interpolationmode none
attr recordingmode histogram
attr source queueingTime(demuxFlow(packetPulled))
attr title "flow queueing times"
attr unit s
bin	-inf	0
bin	0	0
bin	1	0
scalar WirelessB.hostA.wlan[0].queue incomingPackets:count 8337
attr recordingmode count
attr source packetPushStarted
attr title "incoming packets, count"
attr unit pk
scalar WirelessB.hostA.wlan[0].queue incomingPacketLengths:sum 68563488
attr interpolationmode none
attr recordingmode sum
attr source packetLength(packetPushStarted)
attr title "incoming packet lengths, sum"
attr unit b
statistic WirelessB.hostA.wlan[0].queue incomingPacketLengths:histogram
field count 8337
field mean 8224
field stddev 0
field min 8224
field max 8224
field sum 68563488
field sqrsum 563866125312
attr interpolationmode none
attr recordingmode histogram
attr source packetLength(packetPushStarted)
attr title "incoming packet lengths"
attr unit b
bin	-inf	0
bin	8223	0
bin	8224	8337
bin	8225	0
scalar WirelessB.hostA.wlan[0].queue droppedPacketsQueueOverflow:count 3733
attr interpolationmode none
attr recordingmode count
attr source packetDropReasonIsQueueOverflow(packetDropped)
attr title "dropped packets: queue overflow, count"
attr unit pk
scalar WirelessB.hostA.wlan[0].queue droppedPacketLengthsQueueOverflow:sum 30700192
attr interpolationmode none
attr recordingmode sum
attr source packetLength(packetDropReasonIsQueueOverflow(packetDropped))
attr title "dropped packet lengths: queue overflow, sum"
attr unit b
par WirelessB.hostA.wlan[0].mac typename "\"inet.linklayer.csmaca.CsmaCaMac\""
par WirelessB.hostA.wlan[0].mac interfaceTableModule "\"WirelessB.hostA.interfaceTable\""
par WirelessB.hostA.wlan[0].mac radioModule "\"^.radio\""
par WirelessB.hostA.wlan[0].mac address "\"auto\""
attr mutable ""
par WirelessB.hostA.wlan[0].mac fcsMode "\"declared\""
attr enum declared,computed
par WirelessB.hostA.wlan[0].mac useAck true
par WirelessB.hostA.wlan[0].mac bitrate 1e+06bps
attr unit bps
par WirelessB.hostA.wlan[0].mac headerLength 23B
attr unit B
par WirelessB.hostA.wlan[0].mac ackLength 14B
attr unit B
par WirelessB.hostA.wlan[0].mac sifsTime 1e-05s
attr unit s
par WirelessB.hostA.wlan[0].mac slotTime 2e-05s
attr unit s
par WirelessB.hostA.wlan[0].mac difsTime 5e-05s
attr unit s
par WirelessB.hostA.wlan[0].mac ackTimeout 0.0003s
attr unit s
par WirelessB.hostA.wlan[0].mac mtu 1500
par WirelessB.hostA.wlan[0].mac cwMin 31
par WirelessB.hostA.wlan[0].mac cwMax 1023
par WirelessB.hostA.wlan[0].mac cwMulticast 31
par WirelessB.hostA.wlan[0].mac retryLimit 7
scalar WirelessB.hostA.wlan[0].mac numRetry 352
scalar WirelessB.hostA.wlan[0].mac numSentWithoutRetry 4263
scalar WirelessB.hostA.wlan[0].mac numGivenUp 0
scalar WirelessB.hostA.wlan[0].mac numCollision 138
scalar WirelessB.hostA.wlan[0].mac numSent 4594
scalar WirelessB.hostA.wlan[0].mac numReceived 0
scalar WirelessB.hostA.wlan[0].mac numSentBroadcast 0
scalar WirelessB.hostA.wlan[0].mac numReceivedBroadcast 0
scalar WirelessB.hostA.wlan[0].mac packetDropIncorrectlyReceived:count 138
attr interpolationmode none
attr recordingmode count
attr source packetDropReasonIsIncorrectlyReceived(packetDropped)
attr title "packet drop: incorrectly received, count"
scalar WirelessB.hostA.wlan[0].mac packetDropIncorrectlyReceived:sum(packetBytes) 145590
attr interpolationmode none
attr recordingmode sum(packetBytes)
attr source packetDropReasonIsIncorrectlyReceived(packetDropped)
attr title "packet drop: incorrectly received, sum(packetBytes)"
scalar WirelessB.hostA.wlan[0].mac packetDropNotAddressedToUs:count 2824
attr interpolationmode none
attr recordingmode count
attr source packetDropReasonIsNotAddressedToUs(packetDropped)
attr title "packet drop: not addressed to us, count"
scalar WirelessB.hostA.wlan[0].mac packetDropNotAddressedToUs:sum(packetBytes) 2979320
attr interpolationmode none
attr recordingmode sum(packetBytes)
attr source packetDropReasonIsNotAddressedToUs(packetDropped)
attr title "packet drop: not addressed to us, sum(packetBytes)"
scalar WirelessB.hostA.wlan[0].mac packetDropQueueOverflow:count 0
attr interpolationmode none
attr recordingmode count
attr source packetDropReasonIsQueueOverflow(packetDropped)
attr title "packet drop: queue overflow, count"
scalar WirelessB.hostA.wlan[0].mac packetDropQueueOverflow:sum(packetBytes) 0
attr interpolationmode none
attr recordingmode sum(packetBytes)
attr source packetDropReasonIsQueueOverflow(packetDropped)
attr title "packet drop: queue overflow, sum(packetBytes)"
scalar WirelessB.hostA.wlan[0].mac packetDropRetryLimitReached:count 0
attr interpolationmode none
attr recordingmode count
attr source packetDropReasonIsRetryLimitReached(packetDropped)
attr title "packet drop: retry limit reached, count"
scalar WirelessB.hostA.wlan[0].mac packetDropRetryLimitReached:sum(packetBytes) 0
attr interpolationmode none
attr recordingmode sum(packetBytes)
attr source packetDropReasonIsRetryLimitReached(packetDropped)
attr title "packet drop: retry limit reached, sum(packetBytes)"
scalar WirelessB.hostA.wlan[0].mac linkBroken:count 0
attr interpolationmode none
attr recordingmode count
attr source linkBroken
attr title "link break, count"
par WirelessB.hostA.wlan[0].radio.antenna typename "\"inet.physicallayer.wireless.common.antenna.IsotropicAntenna\""
par WirelessB.hostA.wlan[0].radio.antenna mobilityModule "\"^.^.^.mobility\""
par WirelessB.hostA.wlan[0].radio.antenna numAntennas 1
par WirelessB.hostA.wlan[0].radio.transmitter typename "\"inet.physicallayer.wireless.unitdisk.UnitDiskTransmitter\""
par WirelessB.hostA.wlan[0].radio.transmitter preambleDuration 0s
attr unit s
par WirelessB.hostA.wlan[0].radio.transmitter headerLength 96b
attr unit b
par WirelessB.hostA.wlan[0].radio.transmitter bitrate 1e+06bps
attr unit bps
par WirelessB.hostA.wlan[0].radio.transmitter communicationRange 250m
attr unit m
par WirelessB.hostA.wlan[0].radio.transmitter interferenceRange 500m
attr unit m
par WirelessB.hostA.wlan[0].radio.transmitter detectionRange 500m
attr unit m
par WirelessB.hostA.wlan[0].radio.receiver typename "\"inet.physicallayer.wireless.unitdisk.UnitDiskReceiver\""
par WirelessB.hostA.wlan[0].radio.receiver ignoreInterference false
par WirelessB.hostA.wlan[0].radio.energyConsumer typename "\"inet.physicallayer.wireless.common.energyconsumer.StateBasedEpEnergyConsumer\""
par WirelessB.hostA.wlan[0].radio.energyConsumer energySourceModule "\"WirelessB.hostA.energyStorage\""
par WirelessB.hostA.wlan[0].radio.energyConsumer offPowerConsumption 0W
attr unit W
par WirelessB.hostA.wlan[0].radio.energyConsumer sleepPowerConsumption 0.001W
attr unit W
par WirelessB.hostA.wlan[0].radio.energyConsumer switchingPowerConsumption 0.001W
attr unit W
par WirelessB.hostA.wlan[0].radio.energyConsumer receiverIdlePowerConsumption 0.002W
attr unit W
par WirelessB.hostA.wlan[0].radio.energyConsumer receiverBusyPowerConsumption 0.005W
attr unit W
par WirelessB.hostA.wlan[0].radio.energyConsumer receiverReceivingPowerConsumption 0.01W
attr unit W
par WirelessB.hostA.wlan[0].radio.energyConsumer receiverReceivingPreamblePowerConsumption 0.01W
attr unit W
par WirelessB.hostA.wlan[0].radio.energyConsumer receiverReceivingHeaderPowerConsumption 0.01W
attr unit W
par WirelessB.hostA.wlan[0].radio.energyConsumer receiverReceivingDataPowerConsumption 0.01W
attr unit W
par WirelessB.hostA.wlan[0].radio.energyConsumer transmitterIdlePowerConsumption 0.002W
attr unit W
par WirelessB.hostA.wlan[0].radio.energyConsumer transmitterTransmittingPowerConsumption 0.1W
attr unit W
par WirelessB.hostA.wlan[0].radio.energyConsumer transmitterTransmittingPreamblePowerConsumption 0.1W
attr unit W
par WirelessB.hostA.wlan[0].radio.energyConsumer transmitterTransmittingHeaderPowerConsumption 0.1W
attr unit W
par WirelessB.hostA.wlan[0].radio.energyConsumer transmitterTransmittingDataPowerConsumption 0.1W
attr unit W
par WirelessB.hostA.wlan[0].radio typename "\"inet.physicallayer.wireless.unitdisk.UnitDiskRadio\""
par WirelessB.hostA.wlan[0].radio radioMediumModule "\"radioMedium\""
par WirelessB.hostA.wlan[0].radio energySourceModule "\"WirelessB.hostA.energyStorage\""
par WirelessB.hostA.wlan[0].radio initialRadioMode "\"off\""
attr enum off,sleep,receiver,transmitter,transceiver
par WirelessB.hostA.wlan[0].radio switchingTimes "\"ms 0 0 0 0 0 0 0 0 0 0 0 0 0 0 0 0 0 0 0 0 0 0 0 0 0\""
par WirelessB.hostA.wlan[0].radio sendRawBytes false
par WirelessB.hostA.wlan[0].radio separateTransmissionParts false
par WirelessB.hostA.wlan[0].radio separateReceptionParts false
par WirelessB.hostA.wlan[0].radio displayCommunicationRange true
par WirelessB.hostA.wlan[0].radio displayInterferenceRange false
statistic WirelessB.hostA.wlan[0].radio minSnir:histogram
field count 0
field mean nan
field stddev nan
field min nan
field max nan
field sum 0
field sqrsum 0
attr recordingmode histogram
attr source minimumSnir(packetSentToUpper)
attr title "Min SNIR"
bin	-inf	0
bin	0	0
bin	1	0
statistic WirelessB.hostA.wlan[0].radio packetErrorRate:histogram
field count 7556
field mean 0.018263631551085
field stddev 0.13391207781911
field min 0
field max 1
field sum 138
field sqrsum 138
attr recordingmode histogram
attr source packetErrorRate(packetSentToUpper)
attr title "Packet error rate"
bin	-inf	0
bin	-0.5	0
bin	-0.48	0
bin	-0.46	0
bin	-0.44	0
bin	-0.42	0
bin	-0.4	0
bin	-0.38	0
bin	-0.36	0
bin	-0.34	0
bin	-0.32	0
bin	-0.3	0
bin	-0.28	0
bin	-0.26	0
bin	-0.24	0
bin	-0.22	0
bin	-0.2	0
bin	-0.18	0
bin	-0.16	0
bin	-0.14	0
bin	-0.12	0
bin	-0.1	0
bin	-0.08	0
bin	-0.06	0
bin	-0.04	0
bin	-0.02	0
bin	0	7418
bin	0.02	0
bin	0.04	0
bin	0.06	0
bin	0.08	0
bin	0.1	0
bin	0.12	0
bin	0.14	0
bin	0.16	0
bin	0.18	0
bin	0.2	0
bin	0.22	0
bin	0.24	0
bin	0.26	0
bin	0.28	0
bin	0.3	0
bin	0.32	0
bin	0.34	0
bin	0.36	0
bin	0.38	0
bin	0.4	0
bin	0.42	0
bin	0.44	0
bin	0.46	0
bin	0.48	0
bin	0.5	0
bin	0.52	0
bin	0.54	0
bin	0.56	0
bin	0.58	0
bin	0.6	0
bin	0.62	0
bin	0.64	0
bin	0.66	0
bin	0.68	0
bin	0.7	0
bin	0.72	0
bin	0.74	0
bin	0.76	0
bin	0.78	0
bin	0.8	0
bin	0.82	0
bin	0.84	0
bin	0.86	0
bin	0.88	0
bin	0.9	0
bin	0.92	0
bin	0.94	0
bin	0.96	0
bin	0.98	0
bin	1	138
bin	1.02	0
statistic WirelessB.hostA.wlan[0].radio bitErrorRate:histogram
field count 7556
field mean 0.018263631551085
field stddev 0.13391207781911
field min 0
field max 1
field sum 138
field sqrsum 138
attr recordingmode histogram
attr source bitErrorRate(packetSentToUpper)
attr title "Bit error rate"
bin	-inf	0
bin	-0.5	0
bin	-0.48	0
bin	-0.46	0
bin	-0.44	0
bin	-0.42	0
bin	-0.4	0
bin	-0.38	0
bin	-0.36	0
bin	-0.34	0
bin	-0.32	0
bin	-0.3	0
bin	-0.28	0
bin	-0.26	0
bin	-0.24	0
bin	-0.22	0
bin	-0.2	0
bin	-0.18	0
bin	-0.16	0
bin	-0.14	0
bin	-0.12	0
bin	-0.1	0
bin	-0.08	0
bin	-0.06	0
bin	-0.04	0
bin	-0.02	0
bin	0	7418
bin	0.02	0
bin	0.04	0
bin	0.06	0
bin	0.08	0
bin	0.1	0
bin	0.12	0
bin	0.14	0
bin	0.16	0
bin	0.18	0
bin	0.2	0
bin	0.22	0
bin	0.24	0
bin	0.26	0
bin	0.28	0
bin	0.3	0
bin	0.32	0
bin	0.34	0
bin	0.36	0
bin	0.38	0
bin	0.4	0
bin	0.42	0
bin	0.44	0
bin	0.46	0
bin	0.48	0
bin	0.5	0
bin	0.52	0
bin	0.54	0
bin	0.56	0
bin	0.58	0
bin	0.6	0
bin	0.62	0
bin	0.64	0
bin	0.66	0
bin	0.68	0
bin	0.7	0
bin	0.72	0
bin	0.74	0
bin	0.76	0
bin	0.78	0
bin	0.8	0
bin	0.82	0
bin	0.84	0
bin	0.86	0
bin	0.88	0
bin	0.9	0
bin	0.92	0
bin	0.94	0
bin	0.96	0
bin	0.98	0
bin	1	138
bin	1.02	0
statistic WirelessB.hostA.wlan[0].radio symbolErrorRate:histogram
field count 7556
field mean 0.018263631551085
field stddev 0.13391207781911
field min 0
field max 1
field sum 138
field sqrsum 138
attr recordingmode histogram
attr source symbolErrorRate(packetSentToUpper)
attr title "Symbol error rate"
bin	-inf	0
bin	-0.5	0
bin	-0.48	0
bin	-0.46	0
bin	-0.44	0
bin	-0.42	0
bin	-0.4	0
bin	-0.38	0
bin	-0.36	0
bin	-0.34	0
bin	-0.32	0
bin	-0.3	0
bin	-0.28	0
bin	-0.26	0
bin	-0.24	0
bin	-0.22	0
bin	-0.2	0
bin	-0.18	0
bin	-0.16	0
bin	-0.14	0
bin	-0.12	0
bin	-0.1	0
bin	-0.08	0
bin	-0.06	0
bin	-0.04	0
bin	-0.02	0
bin	0	7418
bin	0.02	0
bin	0.04	0
bin	0.06	0
bin	0.08	0
bin	0.1	0
bin	0.12	0
bin	0.14	0
bin	0.16	0
bin	0.18	0
bin	0.2	0
bin	0.22	0
bin	0.24	0
bin	0.26	0
bin	0.28	0
bin	0.3	0
bin	0.32	0
bin	0.34	0
bin	0.36	0
bin	0.38	0
bin	0.4	0
bin	0.42	0
bin	0.44	0
bin	0.46	0
bin	0.48	0
bin	0.5	0
bin	0.52	0
bin	0.54	0
bin	0.56	0
bin	0.58	0
bin	0.6	0
bin	0.62	0
bin	0.64	0
bin	0.66	0
bin	0.68	0
bin	0.7	0
bin	0.72	0
bin	0.74	0
bin	0.76	0
bin	0.78	0
bin	0.8	0
bin	0.82	0
bin	0.84	0
bin	0.86	0
bin	0.88	0
bin	0.9	0
bin	0.92	0
bin	0.94	0
bin	0.96	0
bin	0.98	0
bin	1	138
bin	1.02	0
scalar WirelessB.hostA.wlan[0].radio transmissionState:count 19784
attr interpolationmode sample-hold
attr recordingmode count
attr source transmissionStateChanged
attr title "Radio transmission state, count"
scalar WirelessB.hostA.wlan[0].radio receptionState:count 41406
attr interpolationmode sample-hold
attr recordingmode count
attr source receptionStateChanged
attr title "Radio reception state, count"
scalar WirelessB.hostA.wlan[0].radio radioMode:count 9895
attr interpolationmode sample-hold
attr recordingmode count
attr source radioModeChanged
attr title "Radio mode, count"
par WirelessB.hostA.wlan[0] typename "\"inet.linklayer.common.WirelessInterface\""
par WirelessB.hostA.wlan[0] displayStringTextFormat "\"%a (%i)\\n%m\""
par WirelessB.hostA.wlan[0] recordPcap false
par WirelessB.hostA.wlan[0] numPcapRecorders 0
par WirelessB.hostA.wlan[0] interfaceTableModule "\"WirelessB.hostA.interfaceTable\""
par WirelessB.hostA.wlan[0] energySourceModule "\"WirelessB.hostA.energyStorage\""
par WirelessB.hostA.wlan[0] protocol "\"\""
scalar WirelessB.hostA.wlan[0] packetDropInterfaceDown:count 0
attr interpolationmode none
attr recordingmode count
attr source packetDropReasonIsInterfaceDown(packetDropped)
attr title "packet drops: interface down, count"
scalar WirelessB.hostA.wlan[0] packetDropInterfaceDown:sum(packetBytes) 0
attr interpolationmode none
attr recordingmode sum(packetBytes)
attr source packetDropReasonIsInterfaceDown(packetDropped)
attr title "packet drops: interface down, sum(packetBytes)"
scalar WirelessB.hostA.wlan[0] packetDropNoCarrier:count 0
attr interpolationmode none
attr recordingmode count
attr source packetDropReasonIsNoCarrier(packetDropped)
attr title "packet drops: no carrier, count"
scalar WirelessB.hostA.wlan[0] packetDropNoCarrier:sum(packetBytes) 0
attr interpolationmode none
attr recordingmode sum(packetBytes)
attr source packetDropReasonIsNoCarrier(packetDropped)
attr title "packet drops: no carrier, sum(packetBytes)"
par WirelessB.hostA.ipv4.transportIn.channel typename "\"ned.IdealChannel\""
par WirelessB.hostA.ipv4.up.out[0].channel typename "\"ned.IdealChannel\""
par WirelessB.hostA.ipv4.lp.out[2].channel typename "\"ned.IdealChannel\""
par WirelessB.hostA.ipv4.ifIn.channel typename "\"ned.IdealChannel\""
[...]
attr interpolationmode none
attr recordingmode sum(packetBytes)
attr source packetDropReasonIsRetryLimitReached(packetDropped)
attr title "packet drop: retry limit reached, sum(packetBytes)"
scalar WirelessB.hostR7.wlan[0].mac linkBroken:count 3
attr interpolationmode none
attr recordingmode count
attr source linkBroken
attr title "link break, count"
par WirelessB.hostR7.wlan[0].radio.antenna typename "\"inet.physicallayer.wireless.common.antenna.IsotropicAntenna\""
par WirelessB.hostR7.wlan[0].radio.antenna mobilityModule "\"^.^.^.mobility\""
par WirelessB.hostR7.wlan[0].radio.antenna numAntennas 1
par WirelessB.hostR7.wlan[0].radio.transmitter typename "\"inet.physicallayer.wireless.unitdisk.UnitDiskTransmitter\""
par WirelessB.hostR7.wlan[0].radio.transmitter preambleDuration 0s
attr unit s
par WirelessB.hostR7.wlan[0].radio.transmitter headerLength 96b
attr unit b
par WirelessB.hostR7.wlan[0].radio.transmitter bitrate 1e+06bps
attr unit bps
par WirelessB.hostR7.wlan[0].radio.transmitter communicationRange 250m
attr unit m
par WirelessB.hostR7.wlan[0].radio.transmitter interferenceRange 500m
attr unit m
par WirelessB.hostR7.wlan[0].radio.transmitter detectionRange 500m
attr unit m
par WirelessB.hostR7.wlan[0].radio.receiver typename "\"inet.physicallayer.wireless.unitdisk.UnitDiskReceiver\""
par WirelessB.hostR7.wlan[0].radio.receiver ignoreInterference false
par WirelessB.hostR7.wlan[0].radio.energyConsumer typename "\"inet.physicallayer.wireless.common.energyconsumer.StateBasedEpEnergyConsumer\""
par WirelessB.hostR7.wlan[0].radio.energyConsumer energySourceModule "\"WirelessB.hostR7.energyStorage\""
par WirelessB.hostR7.wlan[0].radio.energyConsumer offPowerConsumption 0W
attr unit W
par WirelessB.hostR7.wlan[0].radio.energyConsumer sleepPowerConsumption 0.001W
attr unit W
par WirelessB.hostR7.wlan[0].radio.energyConsumer switchingPowerConsumption 0.001W
attr unit W
par WirelessB.hostR7.wlan[0].radio.energyConsumer receiverIdlePowerConsumption 0.002W
attr unit W
par WirelessB.hostR7.wlan[0].radio.energyConsumer receiverBusyPowerConsumption 0.005W
attr unit W
par WirelessB.hostR7.wlan[0].radio.energyConsumer receiverReceivingPowerConsumption 0.01W
attr unit W
par WirelessB.hostR7.wlan[0].radio.energyConsumer receiverReceivingPreamblePowerConsumption 0.01W
attr unit W
par WirelessB.hostR7.wlan[0].radio.energyConsumer receiverReceivingHeaderPowerConsumption 0.01W
attr unit W
par WirelessB.hostR7.wlan[0].radio.energyConsumer receiverReceivingDataPowerConsumption 0.01W
attr unit W
par WirelessB.hostR7.wlan[0].radio.energyConsumer transmitterIdlePowerConsumption 0.002W
attr unit W
par WirelessB.hostR7.wlan[0].radio.energyConsumer transmitterTransmittingPowerConsumption 0.1W
attr unit W
par WirelessB.hostR7.wlan[0].radio.energyConsumer transmitterTransmittingPreamblePowerConsumption 0.1W
attr unit W
par WirelessB.hostR7.wlan[0].radio.energyConsumer transmitterTransmittingHeaderPowerConsumption 0.1W
attr unit W
par WirelessB.hostR7.wlan[0].radio.energyConsumer transmitterTransmittingDataPowerConsumption 0.1W
attr unit W
par WirelessB.hostR7.wlan[0].radio typename "\"inet.physicallayer.wireless.unitdisk.UnitDiskRadio\""
par WirelessB.hostR7.wlan[0].radio radioMediumModule "\"radioMedium\""
par WirelessB.hostR7.wlan[0].radio energySourceModule "\"WirelessB.hostR7.energyStorage\""
par WirelessB.hostR7.wlan[0].radio initialRadioMode "\"off\""
attr enum off,sleep,receiver,transmitter,transceiver
par WirelessB.hostR7.wlan[0].radio switchingTimes "\"ms 0 0 0 0 0 0 0 0 0 0 0 0 0 0 0 0 0 0 0 0 0 0 0 0 0\""
par WirelessB.hostR7.wlan[0].radio sendRawBytes false
par WirelessB.hostR7.wlan[0].radio separateTransmissionParts false
par WirelessB.hostR7.wlan[0].radio separateReceptionParts false
par WirelessB.hostR7.wlan[0].radio displayCommunicationRange false
par WirelessB.hostR7.wlan[0].radio displayInterferenceRange false
statistic WirelessB.hostR7.wlan[0].radio minSnir:histogram
field count 0
field mean nan
field stddev nan
field min nan
field max nan
field sum 0
field sqrsum 0
attr recordingmode histogram
attr source minimumSnir(packetSentToUpper)
attr title "Min SNIR"
bin	-inf	0
bin	0	0
bin	1	0
statistic WirelessB.hostR7.wlan[0].radio packetErrorRate:histogram
field count 6928
field mean 0.24841224018476
field stddev 0.43212330663298
field min 0
field max 1
field sum 1721
field sqrsum 1721
attr recordingmode histogram
attr source packetErrorRate(packetSentToUpper)
attr title "Packet error rate"
bin	-inf	0
bin	0	5207
bin	1	1721
bin	2	0
statistic WirelessB.hostR7.wlan[0].radio bitErrorRate:histogram
field count 6928
field mean 0.24841224018476
field stddev 0.43212330663298
field min 0
field max 1
field sum 1721
field sqrsum 1721
attr recordingmode histogram
attr source bitErrorRate(packetSentToUpper)
attr title "Bit error rate"
bin	-inf	0
bin	0	5207
bin	1	1721
bin	2	0
statistic WirelessB.hostR7.wlan[0].radio symbolErrorRate:histogram
field count 6928
field mean 0.24841224018476
field stddev 0.43212330663298
field min 0
field max 1
field sum 1721
field sqrsum 1721
attr recordingmode histogram
attr source symbolErrorRate(packetSentToUpper)
attr title "Symbol error rate"
bin	-inf	0
bin	0	5207
bin	1	1721
bin	2	0
scalar WirelessB.hostR7.wlan[0].radio transmissionState:count 13270
attr interpolationmode sample-hold
attr recordingmode count
attr source transmissionStateChanged
attr title "Radio transmission state, count"
scalar WirelessB.hostR7.wlan[0].radio receptionState:count 42403
attr interpolationmode sample-hold
attr recordingmode count
attr source receptionStateChanged
attr title "Radio reception state, count"
scalar WirelessB.hostR7.wlan[0].radio radioMode:count 6638
attr interpolationmode sample-hold
attr recordingmode count
attr source radioModeChanged
attr title "Radio mode, count"
par WirelessB.hostR7.wlan[0] typename "\"inet.linklayer.common.WirelessInterface\""
par WirelessB.hostR7.wlan[0] displayStringTextFormat "\"%a (%i)\\n%m\""
par WirelessB.hostR7.wlan[0] recordPcap false
par WirelessB.hostR7.wlan[0] numPcapRecorders 0
par WirelessB.hostR7.wlan[0] interfaceTableModule "\"WirelessB.hostR7.interfaceTable\""
par WirelessB.hostR7.wlan[0] energySourceModule "\"WirelessB.hostR7.energyStorage\""
par WirelessB.hostR7.wlan[0] protocol "\"\""
scalar WirelessB.hostR7.wlan[0] packetDropInterfaceDown:count 0
attr interpolationmode none
attr recordingmode count
attr source packetDropReasonIsInterfaceDown(packetDropped)
attr title "packet drops: interface down, count"
scalar WirelessB.hostR7.wlan[0] packetDropInterfaceDown:sum(packetBytes) 0
attr interpolationmode none
attr recordingmode sum(packetBytes)
attr source packetDropReasonIsInterfaceDown(packetDropped)
attr title "packet drops: interface down, sum(packetBytes)"
scalar WirelessB.hostR7.wlan[0] packetDropNoCarrier:count 0
attr interpolationmode none
attr recordingmode count
attr source packetDropReasonIsNoCarrier(packetDropped)
attr title "packet drops: no carrier, count"
scalar WirelessB.hostR7.wlan[0] packetDropNoCarrier:sum(packetBytes) 0
attr interpolationmode none
attr recordingmode sum(packetBytes)
attr source packetDropReasonIsNoCarrier(packetDropped)
attr title "packet drops: no carrier, sum(packetBytes)"
par WirelessB.hostR7.ipv4.transportIn.channel typename "\"ned.IdealChannel\""
par WirelessB.hostR7.ipv4.up.out[0].channel typename "\"ned.IdealChannel\""
par WirelessB.hostR7.ipv4.lp.out[2].channel typename "\"ned.IdealChannel\""
par WirelessB.hostR7.ipv4.ifIn.channel typename "\"ned.IdealChannel\""
par WirelessB.hostR7.ipv4.configurator typename "\"inet.networklayer.configurator.ipv4.Ipv4NodeConfigurator\""
par WirelessB.hostR7.ipv4.configurator interfaceTableModule "\"WirelessB.hostR7.interfaceTable\""
par WirelessB.hostR7.ipv4.configurator routingTableModule "\"WirelessB.hostR7.ipv4.routingTable\""
par WirelessB.hostR7.ipv4.configurator networkConfiguratorModule "\"configurator\""
par WirelessB.hostR7.ipv4.configurator configureRoutingTable true
par WirelessB.hostR7.ipv4.routingTable typename "\"inet.networklayer.ipv4.Ipv4RoutingTable\""
par WirelessB.hostR7.ipv4.routingTable interfaceTableModule "\"WirelessB.hostR7.interfaceTable\""
par WirelessB.hostR7.ipv4.routingTable routerId "\"auto\""
par WirelessB.hostR7.ipv4.routingTable netmaskRoutes "\"\""
par WirelessB.hostR7.ipv4.routingTable forwarding true
par WirelessB.hostR7.ipv4.routingTable multicastForwarding false
par WirelessB.hostR7.ipv4.routingTable useAdminDist false
par WirelessB.hostR7.ipv4.routingTable routingFile "\"\""
par WirelessB.hostR7.ipv4.natTable typename "\"inet.networklayer.ipv4.Ipv4NatTable\""
par WirelessB.hostR7.ipv4.natTable networkProtocolModule "\"^.ip\""
par WirelessB.hostR7.ipv4.natTable config "<config/> at content:1"
par WirelessB.hostR7.ipv4.up typename "\"inet.common.MessageDispatcher\""
par WirelessB.hostR7.ipv4.up displayStringTextFormat "\"processed %p pk (%l)\""
par WirelessB.hostR7.ipv4.up forwardServiceRegistration true
par WirelessB.hostR7.ipv4.up forwardProtocolRegistration true
par WirelessB.hostR7.ipv4.igmp typename "\"inet.networklayer.ipv4.Igmpv2\""
par WirelessB.hostR7.ipv4.igmp interfaceTableModule "\"WirelessB.hostR7.interfaceTable\""
par WirelessB.hostR7.ipv4.igmp routingTableModule "\"WirelessB.hostR7.ipv4.routingTable\""
par WirelessB.hostR7.ipv4.igmp crcMode "\"declared\""
attr enum declared,computed
par WirelessB.hostR7.ipv4.igmp enabled true
par WirelessB.hostR7.ipv4.igmp robustnessVariable 2
par WirelessB.hostR7.ipv4.igmp queryInterval 125s
attr unit s
par WirelessB.hostR7.ipv4.igmp queryResponseInterval 10s
attr unit s
par WirelessB.hostR7.ipv4.igmp groupMembershipInterval 260s
attr unit s
par WirelessB.hostR7.ipv4.igmp otherQuerierPresentInterval 255s
attr unit s
par WirelessB.hostR7.ipv4.igmp startupQueryInterval 31.25s
attr unit s
par WirelessB.hostR7.ipv4.igmp startupQueryCount 2
par WirelessB.hostR7.ipv4.igmp lastMemberQueryInterval 1s
attr unit s
par WirelessB.hostR7.ipv4.igmp lastMemberQueryCount 2
par WirelessB.hostR7.ipv4.igmp unsolicitedReportInterval 10s
attr unit s
par WirelessB.hostR7.ipv4.icmp typename "\"inet.networklayer.ipv4.Icmp\""
par WirelessB.hostR7.ipv4.icmp interfaceTableModule "\"WirelessB.hostR7.interfaceTable\""
par WirelessB.hostR7.ipv4.icmp routingTableModule "\"WirelessB.hostR7.ipv4.routingTable\""
par WirelessB.hostR7.ipv4.icmp crcMode "\"declared\""
attr enum declared,computed
attr mutable ""
par WirelessB.hostR7.ipv4.icmp quoteLength 8B
attr mutable ""
attr unit B
par WirelessB.hostR7.ipv4.mp typename "\"inet.common.MessageDispatcher\""
par WirelessB.hostR7.ipv4.mp displayStringTextFormat "\"processed %p pk (%l)\""
par WirelessB.hostR7.ipv4.mp forwardServiceRegistration true
par WirelessB.hostR7.ipv4.mp forwardProtocolRegistration true
par WirelessB.hostR7.ipv4.ip typename "\"inet.networklayer.ipv4.Ipv4\""
par WirelessB.hostR7.ipv4.ip interfaceTableModule "\"WirelessB.hostR7.interfaceTable\""
par WirelessB.hostR7.ipv4.ip routingTableModule "\"WirelessB.hostR7.ipv4.routingTable\""
par WirelessB.hostR7.ipv4.ip arpModule "\"WirelessB.hostR7.ipv4.arp\""
par WirelessB.hostR7.ipv4.ip icmpModule "\"WirelessB.hostR7.ipv4.icmp\""
par WirelessB.hostR7.ipv4.ip crcMode "\"declared\""
attr enum declared,computed
par WirelessB.hostR7.ipv4.ip timeToLive 32
par WirelessB.hostR7.ipv4.ip multicastTimeToLive 32
par WirelessB.hostR7.ipv4.ip fragmentTimeout 60s
attr unit s
par WirelessB.hostR7.ipv4.ip limitedBroadcast false
par WirelessB.hostR7.ipv4.ip directBroadcastInterfaces "\"\""
scalar WirelessB.hostR7.ipv4.ip packetDropAddressResolutionFailed:count 0
attr interpolationmode none
attr recordingmode count
attr source packetDropReasonIsAddressResolutionFailed(packetDropped)
attr title "packet drop: address resolution failed, count"
scalar WirelessB.hostR7.ipv4.ip packetDropAddressResolutionFailed:sum(packetBytes) 0
attr interpolationmode none
attr recordingmode sum(packetBytes)
attr source packetDropReasonIsAddressResolutionFailed(packetDropped)
attr title "packet drop: address resolution failed, sum(packetBytes)"
scalar WirelessB.hostR7.ipv4.ip packetDropHopLimitReached:count 0
attr interpolationmode none
attr recordingmode count
attr source packetDropReasonIsHopLimitReached(packetDropped)
attr title "packet drop: hop limit reached, count"
scalar WirelessB.hostR7.ipv4.ip packetDropHopLimitReached:sum(packetBytes) 0
attr interpolationmode none
attr recordingmode sum(packetBytes)
attr source packetDropReasonIsHopLimitReached(packetDropped)
attr title "packet drop: hop limit reached, sum(packetBytes)"
scalar WirelessB.hostR7.ipv4.ip packetDropForwardingDisabled:count 0
attr interpolationmode none
attr recordingmode count
attr source packetDropReasonIsForwardingDisabled(packetDropped)
attr title "packet drop: forwarding disabled, count"
scalar WirelessB.hostR7.ipv4.ip packetDropForwardingDisabled:sum(packetBytes) 0
attr interpolationmode none
attr recordingmode sum(packetBytes)
attr source packetDropReasonIsForwardingDisabled(packetDropped)
attr title "packet drop: forwarding disabled, sum(packetBytes)"
scalar WirelessB.hostR7.ipv4.ip packetDropNoInterfaceFound:count 0
attr interpolationmode none
attr recordingmode count
attr source packetDropReasonIsNoInterfaceFound(packetDropped)
attr title "packet drop: no interface found, count"
scalar WirelessB.hostR7.ipv4.ip packetDropNoInterfaceFound:sum(packetBytes) 0
attr interpolationmode none
attr recordingmode sum(packetBytes)
attr source packetDropReasonIsNoInterfaceFound(packetDropped)
attr title "packet drop: no interface found, sum(packetBytes)"
scalar WirelessB.hostR7.ipv4.ip packetDropNoRouteFound:count 0
attr interpolationmode none
attr recordingmode count
attr source packetDropReasonIsNoRouteFound(packetDropped)
attr title "packet drop: no route found, count"
scalar WirelessB.hostR7.ipv4.ip packetDropNoRouteFound:sum(packetBytes) 0
attr interpolationmode none
attr recordingmode sum(packetBytes)
attr source packetDropReasonIsNoRouteFound(packetDropped)
attr title "packet drop: no route found, sum(packetBytes)"
scalar WirelessB.hostR7.ipv4.ip packetDropUndefined:count 0
attr interpolationmode none
attr recordingmode count
attr source packetDropReasonIsUndefined(packetDropped)
attr title "packet drop: undefined, count"
scalar WirelessB.hostR7.ipv4.ip packetDropUndefined:sum(packetBytes) 0
attr interpolationmode none
attr recordingmode sum(packetBytes)
attr source packetDropReasonIsUndefined(packetDropped)
attr title "packet drop: undefined, sum(packetBytes)"
par WirelessB.hostR7.ipv4.arp typename "\"inet.networklayer.arp.ipv4.GlobalArp\""
par WirelessB.hostR7.ipv4.arp interfaceTableModule "\"WirelessB.hostR7.interfaceTable\""
par WirelessB.hostR7.ipv4.arp addressType "\"ipv4\""
attr enum ipv4,ipv6,mac,moduleid,modulepath
par WirelessB.hostR7.ipv4.lp typename "\"inet.common.MessageDispatcher\""
par WirelessB.hostR7.ipv4.lp displayStringTextFormat "\"processed %p pk (%l)\""
par WirelessB.hostR7.ipv4.lp forwardServiceRegistration true
par WirelessB.hostR7.ipv4.lp forwardProtocolRegistration true
par WirelessB.hostR7.ipv4 typename "\"inet.networklayer.ipv4.Ipv4NetworkLayer\""
par WirelessB.hostR7.ipv4 forwarding true
par WirelessB.hostR7.ipv4 multicastForwarding false
par WirelessB.hostR7.ipv4 interfaceTableModule "\"WirelessB.hostR7.interfaceTable\""
par WirelessB.hostR7.ipv4 displayStringTextFormat "\"%i\""
par WirelessB.hostR7.nl typename "\"inet.common.MessageDispatcher\""
par WirelessB.hostR7.nl displayStringTextFormat "\"processed %p pk (%l)\""
par WirelessB.hostR7.nl forwardServiceRegistration true
par WirelessB.hostR7.nl forwardProtocolRegistration true
par WirelessB.hostR7.udp typename "\"inet.transportlayer.udp.Udp\""
par WirelessB.hostR7.udp interfaceTableModule "\"WirelessB.hostR7.interfaceTable\""
par WirelessB.hostR7.udp icmpModule "\"^.ipv4.icmp\""
par WirelessB.hostR7.udp icmpv6Module "\"^.ipv6.icmpv6\""
par WirelessB.hostR7.udp crcMode "\"declared\""
attr enum disabled,declared,computed
par WirelessB.hostR7.udp defaultMulticastLoop true
scalar WirelessB.hostR7.udp packetReceived:count 0
attr interpolationmode none
attr recordingmode count
attr source packetReceived
attr title "packets received, count"
scalar WirelessB.hostR7.udp packetReceived:sum(packetBytes) 0
attr interpolationmode none
attr recordingmode sum(packetBytes)
attr source packetReceived
attr title "packets received, sum(packetBytes)"
scalar WirelessB.hostR7.udp packetSent:count 0
attr interpolationmode none
attr recordingmode count
attr source packetSent
attr title "packets sent, count"
scalar WirelessB.hostR7.udp packetSent:sum(packetBytes) 0
attr interpolationmode none
attr recordingmode sum(packetBytes)
attr source packetSent
attr title "packets sent, sum(packetBytes)"
scalar WirelessB.hostR7.udp passedUpPk:count 0
attr interpolationmode none
attr recordingmode count
attr source packetSentToUpper
attr title "packets passed up, count"
scalar WirelessB.hostR7.udp droppedPkWrongPort:count 0
attr interpolationmode none
attr recordingmode count
attr source packetDropReasonIsNoPortFound(packetDropped)
attr title "packets dropped (wrong port), count"
scalar WirelessB.hostR7.udp droppedPkBadChecksum:count 0
attr interpolationmode none
attr recordingmode count
attr source packetDropReasonIsIncorrectlyReceived(packetDropped)
attr title "packets dropped (checksum error), count"
par WirelessB.hostR7.tcp typename "\"inet.transportlayer.tcp.Tcp\""
par WirelessB.hostR7.tcp crcMode "\"declared\""
attr enum declared,computed
par WirelessB.hostR7.tcp advertisedWindow 7504
par WirelessB.hostR7.tcp delayedAcksEnabled false
par WirelessB.hostR7.tcp nagleEnabled true
par WirelessB.hostR7.tcp limitedTransmitEnabled false
par WirelessB.hostR7.tcp increasedIWEnabled false
par WirelessB.hostR7.tcp sackSupport false
par WirelessB.hostR7.tcp windowScalingSupport false
par WirelessB.hostR7.tcp windowScalingFactor -1
par WirelessB.hostR7.tcp timestampSupport false
par WirelessB.hostR7.tcp mss 536
par WirelessB.hostR7.tcp msl 120s
attr unit s
par WirelessB.hostR7.tcp tcpAlgorithmClass "\"TcpReno\""
attr enum TcpVegas,TcpWestwood,TcpNewReno,TcpReno,TcpTahoe,TcpNoCongestionControl
par WirelessB.hostR7.tcp useDataNotification false
par WirelessB.hostR7.tcp dupthresh 3
par WirelessB.hostR7.tcp initialSsthresh 4294967295
par WirelessB.hostR7.tcp stopOperationExtraTime 0s
attr unit s
par WirelessB.hostR7.tcp stopOperationTimeout 2s
attr unit s
par WirelessB.hostR7.tcp ecnWillingness false
par WirelessB.hostR7.tcp dctcpGamma 0.0625
par WirelessB.hostR7.tn typename "\"inet.common.MessageDispatcher\""
par WirelessB.hostR7.tn displayStringTextFormat "\"processed %p pk (%l)\""
par WirelessB.hostR7.tn forwardServiceRegistration true
par WirelessB.hostR7.tn forwardProtocolRegistration true
par WirelessB.hostR7.at typename "\"inet.common.MessageDispatcher\""
par WirelessB.hostR7.at displayStringTextFormat "\"processed %p pk (%l)\""
par WirelessB.hostR7.at forwardServiceRegistration true
par WirelessB.hostR7.at forwardProtocolRegistration true
par WirelessB.hostR7 typename "\"inet.node.inet.WirelessHost\""
par WirelessB.hostR7 hasStatus false
par WirelessB.hostR7 osgModel "\"\""
par WirelessB.hostR7 osgModelColor "\"\""
par WirelessB.hostR7 canvasImage "\"\""
par WirelessB.hostR7 canvasImageColor "\"\""
par WirelessB.hostR7 recordPcap false
par WirelessB.hostR7 numPcapRecorders 0
par WirelessB.hostR7 numLoInterfaces 1
par WirelessB.hostR7 numWlanInterfaces 1
par WirelessB.hostR7 numEthInterfaces 0
par WirelessB.hostR7 numPppInterfaces 0
par WirelessB.hostR7 numTunInterfaces 0
par WirelessB.hostR7 numVirtInterfaces 0
par WirelessB.hostR7 fcsMode "\"declared\""
attr enum declared,computed
par WirelessB.hostR7 hasIpv4 true
par WirelessB.hostR7 hasIpv6 false
par WirelessB.hostR7 hasGn false
par WirelessB.hostR7 forwarding true
par WirelessB.hostR7 multicastForwarding false
par WirelessB.hostR7 hasUdp true
par WirelessB.hostR7 hasTcp true
par WirelessB.hostR7 hasSctp false
par WirelessB.hostR7 numApps 0
par WirelessB typename "\"samples.sim4.WirelessB\""

