                                                                
version 3
run General-0-20250225-16:50:43-6860
attr configname General
attr datetime 20250225-16:50:43
attr datetimef 20250225-165043
attr experiment General
attr inifile omnetpp.ini
attr iterationvars ""
attr iterationvarsd ""
attr iterationvarsf ""
attr measurement ""
attr network SimpleNet
attr processid 6860
attr repetition 0
attr replication #0
attr resultdir results
attr runnumber 0
attr seedset 0
config image-path ../../../inet4.5/images
config network SimpleNet
config sim-time-limit 100s
config *.numNodes 50
config **.arp.typename GlobalArp
config *.radioMedium.typename ApskScalarRadioMedium
config *.radioMedium.backgroundNoise.power -90dBm
config *.radioMedium.mediumLimitCache.centerFrequency 2GHz
config *.host*.hasStatus true
config *.visualizer.energyStorageVisualizer.displayEnergyStorages true
config *.configurator.config "xmldoc (\"address.xml\")"
config *.baseStation.typename LEACHbs
config *.host*.typename LEACHnode
config *.host*.LEACHnode.clusterHeadPercentage 0.5
config **.host*.energyStorage.nominalCapacity 600J
config *.host*.mobility.typename StationaryMobility
config *.host[*].mobility.initFromDisplayString false
config **.constraintAreaMinX 100m
config **.constraintAreaMaxX 480m
config **.constraintAreaMinY 100m
config **.constraintAreaMaxY 800m
config *.host*.energyStorage.typename SimpleEpEnergyStorage
config *.host[*].energyStorage.initialCapacity 50J
config *.host*.wlan[0].typename Ieee802154NarrowbandInterface
config *.host*.wlan[0].radio.typename ApskScalarRadio
config *.host*.wlan[0].radio.centerFrequency 2GHz
config *.host*.wlan[0].radio.bandwidth 2MHz
config *.host*.wlan[0].radio.transmitter.power 1.4mW
config *.host*.wlan[0].radio.transmitter.preambleDuration 10us
config *.host*.wlan[0].radio.transmitter.headerLength 8B
config *.host*.wlan[0].radio.receiver.sensitivity -85dBm
config *.host*.wlan[0].radio.receiver.energyDetection -85dBm
config *.host*.wlan[0].radio.receiver.snirThreshold 4dB
config *.host*.wlan[0].radio.displayCommunicationRange true
config *.baseStation.wlan[0].typename Ieee802154NarrowbandInterface
config *.baseStation.wlan[0].radio.typename ApskScalarRadio
config *.baseStation.wlan[0].radio.centerFrequency 2GHz
config *.baseStation.wlan[0].radio.bandwidth 2MHz
config *.baseStation.wlan[0].radio.transmitter.power 1.4mW
config *.baseStation.wlan[0].radio.transmitter.preambleDuration 10us
config *.baseStation.wlan[0].radio.transmitter.headerLength 8B
config *.baseStation.wlan[0].radio.receiver.sensitivity -85dBm
config *.baseStation.wlan[0].radio.receiver.energyDetection -85dBm
config *.baseStation.wlan[0].radio.receiver.snirThreshold 4dB
config *.baseStation.wlan[0].radio.displayCommunicationRange true
config *.host*.**.bitrate 1Mbps
config *.baseStation.**.bitrate 1Mbps
config *.host[*].energyManagement.typename SimpleEpEnergyManagement
config *.host[*].energyManagement.nodeShutdownCapacity 1J
config *.host*.wlan[0].radio.energyConsumer.typename StateBasedEpEnergyConsumer
config *.host*.wlan[0].radio.energyConsumer.offPowerConsumption 0mW
config *.host*.wlan[0].radio.energyConsumer.sleepPowerConsumption 1mW
config *.host*.wlan[0].radio.energyConsumer.switchingPowerConsumption 1mW
config *.host*.wlan[0].radio.energyConsumer.receiverIdlePowerConsumption 2mW
config *.host*.wlan[0].radio.energyConsumer.receiverBusyPowerConsumption 5mW
config *.host*.wlan[0].radio.energyConsumer.receiverReceivingPowerConsumption 10mW
config *.host*.wlan[0].radio.energyConsumer.transmitterIdlePowerConsumption 2mW
config *.host*.wlan[0].radio.energyConsumer.transmitterTransmittingPowerConsumption 100mW
config *.host*.wlan[0].radio.displayInterferenceRange true
config *.radioMedium.pathLoss.typename FreeSpacePathLoss
config *.host*.wlan[*].radio.bitErrorRate.result-recording-modes default,+vector

vector 0 SimpleNet.baseStation.udp passedUpPk:vector(count) ETV
attr interpolationmode none
attr recordingmode vector(count)
attr source packetSentToUpper
attr title "packets passed up, count"
vector 1 SimpleNet.baseStation.udp droppedPkWrongPort:vector(count) ETV
attr interpolationmode none
attr recordingmode vector(count)
attr source packetDropReasonIsNoPortFound(packetDropped)
attr title "packets dropped (wrong port), count"
vector 2 SimpleNet.baseStation.udp droppedPkBadChecksum:vector(count) ETV
attr interpolationmode none
attr recordingmode vector(count)
attr source packetDropReasonIsIncorrectlyReceived(packetDropped)
attr title "packets dropped (checksum error), count"
vector 3 SimpleNet.host[0].energyStorage residualEnergyCapacity:vector ETV
attr interpolationmode linear
attr recordingmode vector
attr source residualEnergyCapacityChanged
attr title "Residual energy capacity"
attr unit J
vector 4 SimpleNet.host[0].udp passedUpPk:vector(count) ETV
attr interpolationmode none
attr recordingmode vector(count)
attr source packetSentToUpper
attr title "packets passed up, count"
vector 5 SimpleNet.host[0].udp droppedPkWrongPort:vector(count) ETV
attr interpolationmode none
attr recordingmode vector(count)
attr source packetDropReasonIsNoPortFound(packetDropped)
attr title "packets dropped (wrong port), count"
vector 6 SimpleNet.host[0].udp droppedPkBadChecksum:vector(count) ETV
attr interpolationmode none
attr recordingmode vector(count)
attr source packetDropReasonIsIncorrectlyReceived(packetDropped)
attr title "packets dropped (checksum error), count"
vector 7 SimpleNet.host[1].energyStorage residualEnergyCapacity:vector ETV
attr interpolationmode linear
attr recordingmode vector
attr source residualEnergyCapacityChanged
attr title "Residual energy capacity"
attr unit J
vector 8 SimpleNet.host[1].udp passedUpPk:vector(count) ETV
attr interpolationmode none
attr recordingmode vector(count)
attr source packetSentToUpper
attr title "packets passed up, count"
vector 9 SimpleNet.host[1].udp droppedPkWrongPort:vector(count) ETV
attr interpolationmode none
attr recordingmode vector(count)
attr source packetDropReasonIsNoPortFound(packetDropped)
attr title "packets dropped (wrong port), count"
vector 10 SimpleNet.host[1].udp droppedPkBadChecksum:vector(count) ETV
attr interpolationmode none
attr recordingmode vector(count)
attr source packetDropReasonIsIncorrectlyReceived(packetDropped)
attr title "packets dropped (checksum error), count"
vector 11 SimpleNet.host[2].energyStorage residualEnergyCapacity:vector ETV
attr interpolationmode linear
attr recordingmode vector
attr source residualEnergyCapacityChanged
attr title "Residual energy capacity"
attr unit J
vector 12 SimpleNet.host[2].udp passedUpPk:vector(count) ETV
attr interpolationmode none
attr recordingmode vector(count)
attr source packetSentToUpper
attr title "packets passed up, count"
vector 13 SimpleNet.host[2].udp droppedPkWrongPort:vector(count) ETV
attr interpolationmode none
attr recordingmode vector(count)
attr source packetDropReasonIsNoPortFound(packetDropped)
attr title "packets dropped (wrong port), count"
vector 14 SimpleNet.host[2].udp droppedPkBadChecksum:vector(count) ETV
attr interpolationmode none
attr recordingmode vector(count)
attr source packetDropReasonIsIncorrectlyReceived(packetDropped)
attr title "packets dropped (checksum error), count"
vector 15 SimpleNet.host[3].energyStorage residualEnergyCapacity:vector ETV
attr interpolationmode linear
attr recordingmode vector
attr source residualEnergyCapacityChanged
attr title "Residual energy capacity"
attr unit J
vector 16 SimpleNet.host[3].udp passedUpPk:vector(count) ETV
attr interpolationmode none
attr recordingmode vector(count)
attr source packetSentToUpper
attr title "packets passed up, count"
vector 17 SimpleNet.host[3].udp droppedPkWrongPort:vector(count) ETV
attr interpolationmode none
attr recordingmode vector(count)
attr source packetDropReasonIsNoPortFound(packetDropped)
attr title "packets dropped (wrong port), count"
vector 18 SimpleNet.host[3].udp droppedPkBadChecksum:vector(count) ETV
attr interpolationmode none
attr recordingmode vector(count)
attr source packetDropReasonIsIncorrectlyReceived(packetDropped)
attr title "packets dropped (checksum error), count"
vector 19 SimpleNet.host[4].energyStorage residualEnergyCapacity:vector ETV
attr interpolationmode linear
attr recordingmode vector
attr source residualEnergyCapacityChanged
attr title "Residual energy capacity"
attr unit J
vector 20 SimpleNet.host[4].udp passedUpPk:vector(count) ETV
attr interpolationmode none
attr recordingmode vector(count)
attr source packetSentToUpper
attr title "packets passed up, count"
vector 21 SimpleNet.host[4].udp droppedPkWrongPort:vector(count) ETV
attr interpolationmode none
attr recordingmode vector(count)
attr source packetDropReasonIsNoPortFound(packetDropped)
attr title "packets dropped (wrong port), count"
vector 22 SimpleNet.host[4].udp droppedPkBadChecksum:vector(count) ETV
attr interpolationmode none
attr recordingmode vector(count)
attr source packetDropReasonIsIncorrectlyReceived(packetDropped)
attr title "packets dropped (checksum error), count"
vector 23 SimpleNet.host[5].energyStorage residualEnergyCapacity:vector ETV
attr interpolationmode linear
attr recordingmode vector
attr source residualEnergyCapacityChanged
attr title "Residual energy capacity"
attr unit J
vector 24 SimpleNet.host[5].udp passedUpPk:vector(count) ETV
attr interpolationmode none
attr recordingmode vector(count)
attr source packetSentToUpper
attr title "packets passed up, count"
vector 25 SimpleNet.host[5].udp droppedPkWrongPort:vector(count) ETV
attr interpolationmode none
attr recordingmode vector(count)
attr source packetDropReasonIsNoPortFound(packetDropped)
attr title "packets dropped (wrong port), count"
vector 26 SimpleNet.host[5].udp droppedPkBadChecksum:vector(count) ETV
attr interpolationmode none
attr recordingmode vector(count)
attr source packetDropReasonIsIncorrectlyReceived(packetDropped)
attr title "packets dropped (checksum error), count"
vector 27 SimpleNet.host[6].energyStorage residualEnergyCapacity:vector ETV
attr interpolationmode linear
attr recordingmode vector
attr source residualEnergyCapacityChanged
attr title "Residual energy capacity"
attr unit J
vector 28 SimpleNet.host[6].udp passedUpPk:vector(count) ETV
attr interpolationmode none
attr recordingmode vector(count)
attr source packetSentToUpper
attr title "packets passed up, count"
vector 29 SimpleNet.host[6].udp droppedPkWrongPort:vector(count) ETV
attr interpolationmode none
attr recordingmode vector(count)
attr source packetDropReasonIsNoPortFound(packetDropped)
attr title "packets dropped (wrong port), count"
vector 30 SimpleNet.host[6].udp droppedPkBadChecksum:vector(count) ETV
attr interpolationmode none
attr recordingmode vector(count)
attr source packetDropReasonIsIncorrectlyReceived(packetDropped)
attr title "packets dropped (checksum error), count"
vector 31 SimpleNet.host[7].energyStorage residualEnergyCapacity:vector ETV
attr interpolationmode linear
attr recordingmode vector
attr source residualEnergyCapacityChanged
attr title "Residual energy capacity"
attr unit J
vector 32 SimpleNet.host[7].udp passedUpPk:vector(count) ETV
attr interpolationmode none
attr recordingmode vector(count)
attr source packetSentToUpper
attr title "packets passed up, count"
vector 33 SimpleNet.host[7].udp droppedPkWrongPort:vector(count) ETV
attr interpolationmode none
attr recordingmode vector(count)
attr source packetDropReasonIsNoPortFound(packetDropped)
attr title "packets dropped (wrong port), count"
vector 34 SimpleNet.host[7].udp droppedPkBadChecksum:vector(count) ETV
attr interpolationmode none
attr recordingmode vector(count)
attr source packetDropReasonIsIncorrectlyReceived(packetDropped)
attr title "packets dropped (checksum error), count"
vector 35 SimpleNet.host[8].energyStorage residualEnergyCapacity:vector ETV
attr interpolationmode linear
attr recordingmode vector
attr source residualEnergyCapacityChanged
attr title "Residual energy capacity"
attr unit J
vector 36 SimpleNet.host[8].udp passedUpPk:vector(count) ETV
attr interpolationmode none
attr recordingmode vector(count)
attr source packetSentToUpper
attr title "packets passed up, count"
vector 37 SimpleNet.host[8].udp droppedPkWrongPort:vector(count) ETV
attr interpolationmode none
attr recordingmode vector(count)
attr source packetDropReasonIsNoPortFound(packetDropped)
attr title "packets dropped (wrong port), count"
vector 38 SimpleNet.host[8].udp droppedPkBadChecksum:vector(count) ETV
attr interpolationmode none
attr recordingmode vector(count)
attr source packetDropReasonIsIncorrectlyReceived(packetDropped)
attr title "packets dropped (checksum error), count"
vector 39 SimpleNet.host[9].energyStorage residualEnergyCapacity:vector ETV
attr interpolationmode linear
attr recordingmode vector
attr source residualEnergyCapacityChanged
attr title "Residual energy capacity"
attr unit J
vector 40 SimpleNet.host[9].udp passedUpPk:vector(count) ETV
attr interpolationmode none
attr recordingmode vector(count)
attr source packetSentToUpper
attr title "packets passed up, count"
vector 41 SimpleNet.host[9].udp droppedPkWrongPort:vector(count) ETV
attr interpolationmode none
attr recordingmode vector(count)
attr source packetDropReasonIsNoPortFound(packetDropped)
attr title "packets dropped (wrong port), count"
vector 42 SimpleNet.host[9].udp droppedPkBadChecksum:vector(count) ETV
attr interpolationmode none
attr recordingmode vector(count)
attr source packetDropReasonIsIncorrectlyReceived(packetDropped)
attr title "packets dropped (checksum error), count"
vector 43 SimpleNet.host[10].energyStorage residualEnergyCapacity:vector ETV
attr interpolationmode linear
attr recordingmode vector
attr source residualEnergyCapacityChanged
attr title "Residual energy capacity"
attr unit J
vector 44 SimpleNet.host[10].udp passedUpPk:vector(count) ETV
attr interpolationmode none
attr recordingmode vector(count)
attr source packetSentToUpper
attr title "packets passed up, count"
vector 45 SimpleNet.host[10].udp droppedPkWrongPort:vector(count) ETV
attr interpolationmode none
attr recordingmode vector(count)
attr source packetDropReasonIsNoPortFound(packetDropped)
attr title "packets dropped (wrong port), count"
vector 46 SimpleNet.host[10].udp droppedPkBadChecksum:vector(count) ETV
attr interpolationmode none
attr recordingmode vector(count)
attr source packetDropReasonIsIncorrectlyReceived(packetDropped)
attr title "packets dropped (checksum error), count"
vector 47 SimpleNet.host[11].energyStorage residualEnergyCapacity:vector ETV
attr interpolationmode linear
attr recordingmode vector
attr source residualEnergyCapacityChanged
attr title "Residual energy capacity"
attr unit J
vector 48 SimpleNet.host[11].udp passedUpPk:vector(count) ETV
attr interpolationmode none
attr recordingmode vector(count)
attr source packetSentToUpper
attr title "packets passed up, count"
vector 49 SimpleNet.host[11].udp droppedPkWrongPort:vector(count) ETV
attr interpolationmode none
attr recordingmode vector(count)
attr source packetDropReasonIsNoPortFound(packetDropped)
attr title "packets dropped (wrong port), count"
vector 50 SimpleNet.host[11].udp droppedPkBadChecksum:vector(count) ETV
attr interpolationmode none
attr recordingmode vector(count)
attr source packetDropReasonIsIncorrectlyReceived(packetDropped)
attr title "packets dropped (checksum error), count"
vector 51 SimpleNet.host[12].energyStorage residualEnergyCapacity:vector ETV
attr interpolationmode linear
attr recordingmode vector
attr source residualEnergyCapacityChanged
attr title "Residual energy capacity"
attr unit J
vector 52 SimpleNet.host[12].udp passedUpPk:vector(count) ETV
attr interpolationmode none
attr recordingmode vector(count)
attr source packetSentToUpper
attr title "packets passed up, count"
vector 53 SimpleNet.host[12].udp droppedPkWrongPort:vector(count) ETV
attr interpolationmode none
attr recordingmode vector(count)
attr source packetDropReasonIsNoPortFound(packetDropped)
attr title "packets dropped (wrong port), count"
vector 54 SimpleNet.host[12].udp droppedPkBadChecksum:vector(count) ETV
attr interpolationmode none
attr recordingmode vector(count)
attr source packetDropReasonIsIncorrectlyReceived(packetDropped)
attr title "packets dropped (checksum error), count"
vector 55 SimpleNet.host[13].energyStorage residualEnergyCapacity:vector ETV
attr interpolationmode linear
attr recordingmode vector
attr source residualEnergyCapacityChanged
attr title "Residual energy capacity"
attr unit J
vector 56 SimpleNet.host[13].udp passedUpPk:vector(count) ETV
attr interpolationmode none
attr recordingmode vector(count)
attr source packetSentToUpper
attr title "packets passed up, count"
vector 57 SimpleNet.host[13].udp droppedPkWrongPort:vector(count) ETV
attr interpolationmode none
attr recordingmode vector(count)
attr source packetDropReasonIsNoPortFound(packetDropped)
attr title "packets dropped (wrong port), count"
vector 58 SimpleNet.host[13].udp droppedPkBadChecksum:vector(count) ETV
attr interpolationmode none
attr recordingmode vector(count)
attr source packetDropReasonIsIncorrectlyReceived(packetDropped)
attr title "packets dropped (checksum error), count"
vector 59 SimpleNet.host[14].energyStorage residualEnergyCapacity:vector ETV
attr interpolationmode linear
attr recordingmode vector
attr source residualEnergyCapacityChanged
attr title "Residual energy capacity"
attr unit J
vector 60 SimpleNet.host[14].udp passedUpPk:vector(count) ETV
attr interpolationmode none
attr recordingmode vector(count)
attr source packetSentToUpper
attr title "packets passed up, count"
vector 61 SimpleNet.host[14].udp droppedPkWrongPort:vector(count) ETV
attr interpolationmode none
attr recordingmode vector(count)
attr source packetDropReasonIsNoPortFound(packetDropped)
attr title "packets dropped (wrong port), count"
vector 62 SimpleNet.host[14].udp droppedPkBadChecksum:vector(count) ETV
attr interpolationmode none
attr recordingmode vector(count)
attr source packetDropReasonIsIncorrectlyReceived(packetDropped)
attr title "packets dropped (checksum error), count"
vector 63 SimpleNet.host[15].energyStorage residualEnergyCapacity:vector ETV
attr interpolationmode linear
attr recordingmode vector
attr source residualEnergyCapacityChanged
attr title "Residual energy capacity"
attr unit J
vector 64 SimpleNet.host[15].udp passedUpPk:vector(count) ETV
attr interpolationmode none
attr recordingmode vector(count)
attr source packetSentToUpper
attr title "packets passed up, count"
vector 65 SimpleNet.host[15].udp droppedPkWrongPort:vector(count) ETV
attr interpolationmode none
attr recordingmode vector(count)
attr source packetDropReasonIsNoPortFound(packetDropped)
attr title "packets dropped (wrong port), count"
vector 66 SimpleNet.host[15].udp droppedPkBadChecksum:vector(count) ETV
attr interpolationmode none
attr recordingmode vector(count)
attr source packetDropReasonIsIncorrectlyReceived(packetDropped)
attr title "packets dropped (checksum error), count"
vector 67 SimpleNet.host[16].energyStorage residualEnergyCapacity:vector ETV
attr interpolationmode linear
attr recordingmode vector
attr source residualEnergyCapacityChanged
attr title "Residual energy capacity"
attr unit J
vector 68 SimpleNet.host[16].udp passedUpPk:vector(count) ETV
attr interpolationmode none
attr recordingmode vector(count)
attr source packetSentToUpper
attr title "packets passed up, count"
vector 69 SimpleNet.host[16].udp droppedPkWrongPort:vector(count) ETV
attr interpolationmode none
attr recordingmode vector(count)
attr source packetDropReasonIsNoPortFound(packetDropped)
attr title "packets dropped (wrong port), count"
vector 70 SimpleNet.host[16].udp droppedPkBadChecksum:vector(count) ETV
attr interpolationmode none
attr recordingmode vector(count)
attr source packetDropReasonIsIncorrectlyReceived(packetDropped)
attr title "packets dropped (checksum error), count"
vector 71 SimpleNet.host[17].energyStorage residualEnergyCapacity:vector ETV
attr interpolationmode linear
attr recordingmode vector
attr source residualEnergyCapacityChanged
attr title "Residual energy capacity"
attr unit J
vector 72 SimpleNet.host[17].udp passedUpPk:vector(count) ETV
attr interpolationmode none
attr recordingmode vector(count)
attr source packetSentToUpper
attr title "packets passed up, count"
vector 73 SimpleNet.host[17].udp droppedPkWrongPort:vector(count) ETV
attr interpolationmode none
attr recordingmode vector(count)
attr source packetDropReasonIsNoPortFound(packetDropped)
attr title "packets dropped (wrong port), count"
vector 74 SimpleNet.host[17].udp droppedPkBadChecksum:vector(count) ETV
attr interpolationmode none
attr recordingmode vector(count)
attr source packetDropReasonIsIncorrectlyReceived(packetDropped)
attr title "packets dropped (checksum error), count"
vector 75 SimpleNet.host[18].energyStorage residualEnergyCapacity:vector ETV
attr interpolationmode linear
attr recordingmode vector
attr source residualEnergyCapacityChanged
attr title "Residual energy capacity"
attr unit J
vector 76 SimpleNet.host[18].udp passedUpPk:vector(count) ETV
attr interpolationmode none
attr recordingmode vector(count)
attr source packetSentToUpper
attr title "packets passed up, count"
vector 77 SimpleNet.host[18].udp droppedPkWrongPort:vector(count) ETV
attr interpolationmode none
attr recordingmode vector(count)
attr source packetDropReasonIsNoPortFound(packetDropped)
attr title "packets dropped (wrong port), count"
vector 78 SimpleNet.host[18].udp droppedPkBadChecksum:vector(count) ETV
attr interpolationmode none
attr recordingmode vector(count)
attr source packetDropReasonIsIncorrectlyReceived(packetDropped)
attr title "packets dropped (checksum error), count"
vector 79 SimpleNet.host[19].energyStorage residualEnergyCapacity:vector ETV
attr interpolationmode linear
attr recordingmode vector
attr source residualEnergyCapacityChanged
attr title "Residual energy capacity"
attr unit J
vector 80 SimpleNet.host[19].udp passedUpPk:vector(count) ETV
attr interpolationmode none
attr recordingmode vector(count)
attr source packetSentToUpper
attr title "packets passed up, count"
vector 81 SimpleNet.host[19].udp droppedPkWrongPort:vector(count) ETV
attr interpolationmode none
attr recordingmode vector(count)
attr source packetDropReasonIsNoPortFound(packetDropped)
attr title "packets dropped (wrong port), count"
vector 82 SimpleNet.host[19].udp droppedPkBadChecksum:vector(count) ETV
attr interpolationmode none
attr recordingmode vector(count)
attr source packetDropReasonIsIncorrectlyReceived(packetDropped)
attr title "packets dropped (checksum error), count"
vector 83 SimpleNet.host[20].energyStorage residualEnergyCapacity:vector ETV
attr interpolationmode linear
attr recordingmode vector
attr source residualEnergyCapacityChanged
attr title "Residual energy capacity"
attr unit J
vector 84 SimpleNet.host[20].udp passedUpPk:vector(count) ETV
attr interpolationmode none
attr recordingmode vector(count)
attr source packetSentToUpper
attr title "packets passed up, count"
vector 85 SimpleNet.host[20].udp droppedPkWrongPort:vector(count) ETV
attr interpolationmode none
attr recordingmode vector(count)
attr source packetDropReasonIsNoPortFound(packetDropped)
attr title "packets dropped (wrong port), count"
vector 86 SimpleNet.host[20].udp droppedPkBadChecksum:vector(count) ETV
attr interpolationmode none
attr recordingmode vector(count)
attr source packetDropReasonIsIncorrectlyReceived(packetDropped)
attr title "packets dropped (checksum error), count"
vector 87 SimpleNet.host[21].energyStorage residualEnergyCapacity:vector ETV
attr interpolationmode linear
attr recordingmode vector
attr source residualEnergyCapacityChanged
attr title "Residual energy capacity"
attr unit J
vector 88 SimpleNet.host[21].udp passedUpPk:vector(count) ETV
attr interpolationmode none
attr recordingmode vector(count)
attr source packetSentToUpper
attr title "packets passed up, count"
vector 89 SimpleNet.host[21].udp droppedPkWrongPort:vector(count) ETV
attr interpolationmode none
attr recordingmode vector(count)
attr source packetDropReasonIsNoPortFound(packetDropped)
attr title "packets dropped (wrong port), count"
vector 90 SimpleNet.host[21].udp droppedPkBadChecksum:vector(count) ETV
attr interpolationmode none
attr recordingmode vector(count)
attr source packetDropReasonIsIncorrectlyReceived(packetDropped)
attr title "packets dropped (checksum error), count"
vector 91 SimpleNet.host[22].energyStorage residualEnergyCapacity:vector ETV
attr interpolationmode linear
attr recordingmode vector
attr source residualEnergyCapacityChanged
attr title "Residual energy capacity"
attr unit J
vector 92 SimpleNet.host[22].udp passedUpPk:vector(count) ETV
attr interpolationmode none
attr recordingmode vector(count)
attr source packetSentToUpper
attr title "packets passed up, count"
vector 93 SimpleNet.host[22].udp droppedPkWrongPort:vector(count) ETV
attr interpolationmode none
attr recordingmode vector(count)
attr source packetDropReasonIsNoPortFound(packetDropped)
attr title "packets dropped (wrong port), count"
vector 94 SimpleNet.host[22].udp droppedPkBadChecksum:vector(count) ETV
attr interpolationmode none
attr recordingmode vector(count)
attr source packetDropReasonIsIncorrectlyReceived(packetDropped)
attr title "packets dropped (checksum error), count"
vector 95 SimpleNet.host[23].energyStorage residualEnergyCapacity:vector ETV
attr interpolationmode linear
attr recordingmode vector
attr source residualEnergyCapacityChanged
attr title "Residual energy capacity"
attr unit J
vector 96 SimpleNet.host[23].udp passedUpPk:vector(count) ETV
attr interpolationmode none
attr recordingmode vector(count)
attr source packetSentToUpper
attr title "packets passed up, count"
vector 97 SimpleNet.host[23].udp droppedPkWrongPort:vector(count) ETV
attr interpolationmode none
attr recordingmode vector(count)
attr source packetDropReasonIsNoPortFound(packetDropped)
attr title "packets dropped (wrong port), count"
vector 98 SimpleNet.host[23].udp droppedPkBadChecksum:vector(count) ETV
attr interpolationmode none
attr recordingmode vector(count)
attr source packetDropReasonIsIncorrectlyReceived(packetDropped)
attr title "packets dropped (checksum error), count"
vector 99 SimpleNet.host[24].energyStorage residualEnergyCapacity:vector ETV
attr interpolationmode linear
attr recordingmode vector
attr source residualEnergyCapacityChanged
attr title "Residual energy capacity"
attr unit J
vector 100 SimpleNet.host[24].udp passedUpPk:vector(count) ETV
attr interpolationmode none
attr recordingmode vector(count)
attr source packetSentToUpper
attr title "packets passed up, count"
vector 101 SimpleNet.host[24].udp droppedPkWrongPort:vector(count) ETV
attr interpolationmode none
attr recordingmode vector(count)
attr source packetDropReasonIsNoPortFound(packetDropped)
attr title "packets dropped (wrong port), count"
vector 102 SimpleNet.host[24].udp droppedPkBadChecksum:vector(count) ETV
attr interpolationmode none
attr recordingmode vector(count)
attr source packetDropReasonIsIncorrectlyReceived(packetDropped)
attr title "packets dropped (checksum error), count"
vector 103 SimpleNet.host[25].energyStorage residualEnergyCapacity:vector ETV
attr interpolationmode linear
attr recordingmode vector
attr source residualEnergyCapacityChanged
attr title "Residual energy capacity"
attr unit J
vector 104 SimpleNet.host[25].udp passedUpPk:vector(count) ETV
attr interpolationmode none
attr recordingmode vector(count)
attr source packetSentToUpper
attr title "packets passed up, count"
vector 105 SimpleNet.host[25].udp droppedPkWrongPort:vector(count) ETV
attr interpolationmode none
attr recordingmode vector(count)
attr source packetDropReasonIsNoPortFound(packetDropped)
attr title "packets dropped (wrong port), count"
vector 106 SimpleNet.host[25].udp droppedPkBadChecksum:vector(count) ETV
attr interpolationmode none
attr recordingmode vector(count)
attr source packetDropReasonIsIncorrectlyReceived(packetDropped)
attr title "packets dropped (checksum error), count"
vector 107 SimpleNet.host[26].energyStorage residualEnergyCapacity:vector ETV
attr interpolationmode linear
attr recordingmode vector
attr source residualEnergyCapacityChanged
attr title "Residual energy capacity"
attr unit J
vector 108 SimpleNet.host[26].udp passedUpPk:vector(count) ETV
attr interpolationmode none
attr recordingmode vector(count)
attr source packetSentToUpper
attr title "packets passed up, count"
vector 109 SimpleNet.host[26].udp droppedPkWrongPort:vector(count) ETV
attr interpolationmode none
attr recordingmode vector(count)
attr source packetDropReasonIsNoPortFound(packetDropped)
attr title "packets dropped (wrong port), count"
vector 110 SimpleNet.host[26].udp droppedPkBadChecksum:vector(count) ETV
attr interpolationmode none
attr recordingmode vector(count)
attr source packetDropReasonIsIncorrectlyReceived(packetDropped)
attr title "packets dropped (checksum error), count"
vector 111 SimpleNet.host[27].energyStorage residualEnergyCapacity:vector ETV
attr interpolationmode linear
attr recordingmode vector
attr source residualEnergyCapacityChanged
attr title "Residual energy capacity"
attr unit J
vector 112 SimpleNet.host[27].udp passedUpPk:vector(count) ETV
attr interpolationmode none
attr recordingmode vector(count)
attr source packetSentToUpper
attr title "packets passed up, count"
vector 113 SimpleNet.host[27].udp droppedPkWrongPort:vector(count) ETV
attr interpolationmode none
attr recordingmode vector(count)
attr source packetDropReasonIsNoPortFound(packetDropped)
attr title "packets dropped (wrong port), count"
vector 114 SimpleNet.host[27].udp droppedPkBadChecksum:vector(count) ETV
attr interpolationmode none
attr recordingmode vector(count)
attr source packetDropReasonIsIncorrectlyReceived(packetDropped)
attr title "packets dropped (checksum error), count"
vector 115 SimpleNet.host[28].energyStorage residualEnergyCapacity:vector ETV
attr interpolationmode linear
attr recordingmode vector
attr source residualEnergyCapacityChanged
attr title "Residual energy capacity"
attr unit J
vector 116 SimpleNet.host[28].udp passedUpPk:vector(count) ETV
attr interpolationmode none
attr recordingmode vector(count)
attr source packetSentToUpper
attr title "packets passed up, count"
vector 117 SimpleNet.host[28].udp droppedPkWrongPort:vector(count) ETV
attr interpolationmode none
attr recordingmode vector(count)
attr source packetDropReasonIsNoPortFound(packetDropped)
attr title "packets dropped (wrong port), count"
vector 118 SimpleNet.host[28].udp droppedPkBadChecksum:vector(count) ETV
attr interpolationmode none
attr recordingmode vector(count)
attr source packetDropReasonIsIncorrectlyReceived(packetDropped)
attr title "packets dropped (checksum error), count"
vector 119 SimpleNet.host[29].energyStorage residualEnergyCapacity:vector ETV
attr interpolationmode linear
attr recordingmode vector
attr source residualEnergyCapacityChanged
attr title "Residual energy capacity"
attr unit J
vector 120 SimpleNet.host[29].udp passedUpPk:vector(count) ETV
attr interpolationmode none
attr recordingmode vector(count)
attr source packetSentToUpper
attr title "packets passed up, count"
vector 121 SimpleNet.host[29].udp droppedPkWrongPort:vector(count) ETV
attr interpolationmode none
attr recordingmode vector(count)
attr source packetDropReasonIsNoPortFound(packetDropped)
attr title "packets dropped (wrong port), count"
vector 122 SimpleNet.host[29].udp droppedPkBadChecksum:vector(count) ETV
attr interpolationmode none
attr recordingmode vector(count)
attr source packetDropReasonIsIncorrectlyReceived(packetDropped)
attr title "packets dropped (checksum error), count"
vector 123 SimpleNet.host[30].energyStorage residualEnergyCapacity:vector ETV
attr interpolationmode linear
attr recordingmode vector
attr source residualEnergyCapacityChanged
attr title "Residual energy capacity"
attr unit J
vector 124 SimpleNet.host[30].udp passedUpPk:vector(count) ETV
attr interpolationmode none
attr recordingmode vector(count)
attr source packetSentToUpper
attr title "packets passed up, count"
vector 125 SimpleNet.host[30].udp droppedPkWrongPort:vector(count) ETV
attr interpolationmode none
attr recordingmode vector(count)
attr source packetDropReasonIsNoPortFound(packetDropped)
attr title "packets dropped (wrong port), count"
vector 126 SimpleNet.host[30].udp droppedPkBadChecksum:vector(count) ETV
attr interpolationmode none
attr recordingmode vector(count)
attr source packetDropReasonIsIncorrectlyReceived(packetDropped)
attr title "packets dropped (checksum error), count"
vector 127 SimpleNet.host[31].energyStorage residualEnergyCapacity:vector ETV
attr interpolationmode linear
attr recordingmode vector
attr source residualEnergyCapacityChanged
attr title "Residual energy capacity"
attr unit J
vector 128 SimpleNet.host[31].udp passedUpPk:vector(count) ETV
attr interpolationmode none
attr recordingmode vector(count)
attr source packetSentToUpper
attr title "packets passed up, count"
vector 129 SimpleNet.host[31].udp droppedPkWrongPort:vector(count) ETV
attr interpolationmode none
attr recordingmode vector(count)
attr source packetDropReasonIsNoPortFound(packetDropped)
attr title "packets dropped (wrong port), count"
vector 130 SimpleNet.host[31].udp droppedPkBadChecksum:vector(count) ETV
attr interpolationmode none
attr recordingmode vector(count)
attr source packetDropReasonIsIncorrectlyReceived(packetDropped)
attr title "packets dropped (checksum error), count"
vector 131 SimpleNet.host[32].energyStorage residualEnergyCapacity:vector ETV
attr interpolationmode linear
attr recordingmode vector
attr source residualEnergyCapacityChanged
attr title "Residual energy capacity"
attr unit J
vector 132 SimpleNet.host[32].udp passedUpPk:vector(count) ETV
attr interpolationmode none
attr recordingmode vector(count)
attr source packetSentToUpper
attr title "packets passed up, count"
vector 133 SimpleNet.host[32].udp droppedPkWrongPort:vector(count) ETV
attr interpolationmode none
attr recordingmode vector(count)
attr source packetDropReasonIsNoPortFound(packetDropped)
attr title "packets dropped (wrong port), count"
vector 134 SimpleNet.host[32].udp droppedPkBadChecksum:vector(count) ETV
attr interpolationmode none
attr recordingmode vector(count)
attr source packetDropReasonIsIncorrectlyReceived(packetDropped)
attr title "packets dropped (checksum error), count"
vector 135 SimpleNet.host[33].energyStorage residualEnergyCapacity:vector ETV
attr interpolationmode linear
attr recordingmode vector
attr source residualEnergyCapacityChanged
attr title "Residual energy capacity"
attr unit J
vector 136 SimpleNet.host[33].udp passedUpPk:vector(count) ETV
attr interpolationmode none
attr recordingmode vector(count)
attr source packetSentToUpper
attr title "packets passed up, count"
vector 137 SimpleNet.host[33].udp droppedPkWrongPort:vector(count) ETV
attr interpolationmode none
attr recordingmode vector(count)
attr source packetDropReasonIsNoPortFound(packetDropped)
attr title "packets dropped (wrong port), count"
vector 138 SimpleNet.host[33].udp droppedPkBadChecksum:vector(count) ETV
attr interpolationmode none
attr recordingmode vector(count)
attr source packetDropReasonIsIncorrectlyReceived(packetDropped)
attr title "packets dropped (checksum error), count"
vector 139 SimpleNet.host[34].energyStorage residualEnergyCapacity:vector ETV
attr interpolationmode linear
attr recordingmode vector
attr source residualEnergyCapacityChanged
attr title "Residual energy capacity"
attr unit J
vector 140 SimpleNet.host[34].udp passedUpPk:vector(count) ETV
attr interpolationmode none
attr recordingmode vector(count)
attr source packetSentToUpper
attr title "packets passed up, count"
vector 141 SimpleNet.host[34].udp droppedPkWrongPort:vector(count) ETV
attr interpolationmode none
attr recordingmode vector(count)
attr source packetDropReasonIsNoPortFound(packetDropped)
attr title "packets dropped (wrong port), count"
vector 142 SimpleNet.host[34].udp droppedPkBadChecksum:vector(count) ETV
attr interpolationmode none
attr recordingmode vector(count)
attr source packetDropReasonIsIncorrectlyReceived(packetDropped)
attr title "packets dropped (checksum error), count"
vector 143 SimpleNet.host[35].energyStorage residualEnergyCapacity:vector ETV
attr interpolationmode linear
attr recordingmode vector
attr source residualEnergyCapacityChanged
attr title "Residual energy capacity"
attr unit J
vector 144 SimpleNet.host[35].udp passedUpPk:vector(count) ETV
attr interpolationmode none
attr recordingmode vector(count)
attr source packetSentToUpper
attr title "packets passed up, count"
vector 145 SimpleNet.host[35].udp droppedPkWrongPort:vector(count) ETV
attr interpolationmode none
attr recordingmode vector(count)
attr source packetDropReasonIsNoPortFound(packetDropped)
attr title "packets dropped (wrong port), count"
vector 146 SimpleNet.host[35].udp droppedPkBadChecksum:vector(count) ETV
attr interpolationmode none
attr recordingmode vector(count)
attr source packetDropReasonIsIncorrectlyReceived(packetDropped)
attr title "packets dropped (checksum error), count"
vector 147 SimpleNet.host[36].energyStorage residualEnergyCapacity:vector ETV
attr interpolationmode linear
attr recordingmode vector
attr source residualEnergyCapacityChanged
attr title "Residual energy capacity"
attr unit J
vector 148 SimpleNet.host[36].udp passedUpPk:vector(count) ETV
attr interpolationmode none
attr recordingmode vector(count)
attr source packetSentToUpper
attr title "packets passed up, count"
vector 149 SimpleNet.host[36].udp droppedPkWrongPort:vector(count) ETV
attr interpolationmode none
attr recordingmode vector(count)
attr source packetDropReasonIsNoPortFound(packetDropped)
attr title "packets dropped (wrong port), count"
vector 150 SimpleNet.host[36].udp droppedPkBadChecksum:vector(count) ETV
attr interpolationmode none
attr recordingmode vector(count)
attr source packetDropReasonIsIncorrectlyReceived(packetDropped)
attr title "packets dropped (checksum error), count"
vector 151 SimpleNet.host[37].energyStorage residualEnergyCapacity:vector ETV
attr interpolationmode linear
attr recordingmode vector
attr source residualEnergyCapacityChanged
attr title "Residual energy capacity"
attr unit J
vector 152 SimpleNet.host[37].udp passedUpPk:vector(count) ETV
attr interpolationmode none
attr recordingmode vector(count)
attr source packetSentToUpper
attr title "packets passed up, count"
vector 153 SimpleNet.host[37].udp droppedPkWrongPort:vector(count) ETV
attr interpolationmode none
attr recordingmode vector(count)
attr source packetDropReasonIsNoPortFound(packetDropped)
attr title "packets dropped (wrong port), count"
vector 154 SimpleNet.host[37].udp droppedPkBadChecksum:vector(count) ETV
attr interpolationmode none
attr recordingmode vector(count)
attr source packetDropReasonIsIncorrectlyReceived(packetDropped)
attr title "packets dropped (checksum error), count"
vector 155 SimpleNet.host[38].energyStorage residualEnergyCapacity:vector ETV
attr interpolationmode linear
attr recordingmode vector
attr source residualEnergyCapacityChanged
attr title "Residual energy capacity"
attr unit J
vector 156 SimpleNet.host[38].udp passedUpPk:vector(count) ETV
attr interpolationmode none
attr recordingmode vector(count)
attr source packetSentToUpper
attr title "packets passed up, count"
vector 157 SimpleNet.host[38].udp droppedPkWrongPort:vector(count) ETV
attr interpolationmode none
attr recordingmode vector(count)
attr source packetDropReasonIsNoPortFound(packetDropped)
attr title "packets dropped (wrong port), count"
vector 158 SimpleNet.host[38].udp droppedPkBadChecksum:vector(count) ETV
attr interpolationmode none
attr recordingmode vector(count)
attr source packetDropReasonIsIncorrectlyReceived(packetDropped)
attr title "packets dropped (checksum error), count"
vector 159 SimpleNet.host[39].energyStorage residualEnergyCapacity:vector ETV
attr interpolationmode linear
attr recordingmode vector
attr source residualEnergyCapacityChanged
attr title "Residual energy capacity"
attr unit J
vector 160 SimpleNet.host[39].udp passedUpPk:vector(count) ETV
attr interpolationmode none
attr recordingmode vector(count)
attr source packetSentToUpper
attr title "packets passed up, count"
vector 161 SimpleNet.host[39].udp droppedPkWrongPort:vector(count) ETV
attr interpolationmode none
attr recordingmode vector(count)
attr source packetDropReasonIsNoPortFound(packetDropped)
attr title "packets dropped (wrong port), count"
vector 162 SimpleNet.host[39].udp droppedPkBadChecksum:vector(count) ETV
attr interpolationmode none
attr recordingmode vector(count)
attr source packetDropReasonIsIncorrectlyReceived(packetDropped)
attr title "packets dropped (checksum error), count"
vector 163 SimpleNet.host[40].energyStorage residualEnergyCapacity:vector ETV
attr interpolationmode linear
attr recordingmode vector
attr source residualEnergyCapacityChanged
attr title "Residual energy capacity"
attr unit J
vector 164 SimpleNet.host[40].udp passedUpPk:vector(count) ETV
attr interpolationmode none
attr recordingmode vector(count)
attr source packetSentToUpper
attr title "packets passed up, count"
vector 165 SimpleNet.host[40].udp droppedPkWrongPort:vector(count) ETV
attr interpolationmode none
attr recordingmode vector(count)
attr source packetDropReasonIsNoPortFound(packetDropped)
attr title "packets dropped (wrong port), count"
vector 166 SimpleNet.host[40].udp droppedPkBadChecksum:vector(count) ETV
attr interpolationmode none
attr recordingmode vector(count)
attr source packetDropReasonIsIncorrectlyReceived(packetDropped)
attr title "packets dropped (checksum error), count"
vector 167 SimpleNet.host[41].energyStorage residualEnergyCapacity:vector ETV
attr interpolationmode linear
attr recordingmode vector
attr source residualEnergyCapacityChanged
attr title "Residual energy capacity"
attr unit J
vector 168 SimpleNet.host[41].udp passedUpPk:vector(count) ETV
attr interpolationmode none
attr recordingmode vector(count)
attr source packetSentToUpper
attr title "packets passed up, count"
vector 169 SimpleNet.host[41].udp droppedPkWrongPort:vector(count) ETV
attr interpolationmode none
attr recordingmode vector(count)
attr source packetDropReasonIsNoPortFound(packetDropped)
attr title "packets dropped (wrong port), count"
vector 170 SimpleNet.host[41].udp droppedPkBadChecksum:vector(count) ETV
attr interpolationmode none
attr recordingmode vector(count)
attr source packetDropReasonIsIncorrectlyReceived(packetDropped)
attr title "packets dropped (checksum error), count"
vector 171 SimpleNet.host[42].energyStorage residualEnergyCapacity:vector ETV
attr interpolationmode linear
attr recordingmode vector
attr source residualEnergyCapacityChanged
attr title "Residual energy capacity"
attr unit J
vector 172 SimpleNet.host[42].udp passedUpPk:vector(count) ETV
attr interpolationmode none
attr recordingmode vector(count)
attr source packetSentToUpper
attr title "packets passed up, count"
vector 173 SimpleNet.host[42].udp droppedPkWrongPort:vector(count) ETV
attr interpolationmode none
attr recordingmode vector(count)
attr source packetDropReasonIsNoPortFound(packetDropped)
attr title "packets dropped (wrong port), count"
vector 174 SimpleNet.host[42].udp droppedPkBadChecksum:vector(count) ETV
attr interpolationmode none
attr recordingmode vector(count)
attr source packetDropReasonIsIncorrectlyReceived(packetDropped)
attr title "packets dropped (checksum error), count"
vector 175 SimpleNet.host[43].energyStorage residualEnergyCapacity:vector ETV
attr interpolationmode linear
attr recordingmode vector
attr source residualEnergyCapacityChanged
attr title "Residual energy capacity"
attr unit J
vector 176 SimpleNet.host[43].udp passedUpPk:vector(count) ETV
attr interpolationmode none
attr recordingmode vector(count)
attr source packetSentToUpper
attr title "packets passed up, count"
vector 177 SimpleNet.host[43].udp droppedPkWrongPort:vector(count) ETV
attr interpolationmode none
attr recordingmode vector(count)
attr source packetDropReasonIsNoPortFound(packetDropped)
attr title "packets dropped (wrong port), count"
vector 178 SimpleNet.host[43].udp droppedPkBadChecksum:vector(count) ETV
attr interpolationmode none
attr recordingmode vector(count)
attr source packetDropReasonIsIncorrectlyReceived(packetDropped)
attr title "packets dropped (checksum error), count"
vector 179 SimpleNet.host[44].energyStorage residualEnergyCapacity:vector ETV
attr interpolationmode linear
attr recordingmode vector
attr source residualEnergyCapacityChanged
attr title "Residual energy capacity"
attr unit J
vector 180 SimpleNet.host[44].udp passedUpPk:vector(count) ETV
attr interpolationmode none
attr recordingmode vector(count)
attr source packetSentToUpper
attr title "packets passed up, count"
vector 181 SimpleNet.host[44].udp droppedPkWrongPort:vector(count) ETV
attr interpolationmode none
attr recordingmode vector(count)
attr source packetDropReasonIsNoPortFound(packetDropped)
attr title "packets dropped (wrong port), count"
vector 182 SimpleNet.host[44].udp droppedPkBadChecksum:vector(count) ETV
attr interpolationmode none
attr recordingmode vector(count)
attr source packetDropReasonIsIncorrectlyReceived(packetDropped)
attr title "packets dropped (checksum error), count"
vector 183 SimpleNet.host[45].energyStorage residualEnergyCapacity:vector ETV
attr interpolationmode linear
attr recordingmode vector
attr source residualEnergyCapacityChanged
attr title "Residual energy capacity"
attr unit J
vector 184 SimpleNet.host[45].udp passedUpPk:vector(count) ETV
attr interpolationmode none
attr recordingmode vector(count)
attr source packetSentToUpper
attr title "packets passed up, count"
vector 185 SimpleNet.host[45].udp droppedPkWrongPort:vector(count) ETV
attr interpolationmode none
attr recordingmode vector(count)
attr source packetDropReasonIsNoPortFound(packetDropped)
attr title "packets dropped (wrong port), count"
vector 186 SimpleNet.host[45].udp droppedPkBadChecksum:vector(count) ETV
attr interpolationmode none
attr recordingmode vector(count)
attr source packetDropReasonIsIncorrectlyReceived(packetDropped)
attr title "packets dropped (checksum error), count"
vector 187 SimpleNet.host[46].energyStorage residualEnergyCapacity:vector ETV
attr interpolationmode linear
attr recordingmode vector
attr source residualEnergyCapacityChanged
attr title "Residual energy capacity"
attr unit J
vector 188 SimpleNet.host[46].udp passedUpPk:vector(count) ETV
attr interpolationmode none
attr recordingmode vector(count)
attr source packetSentToUpper
attr title "packets passed up, count"
vector 189 SimpleNet.host[46].udp droppedPkWrongPort:vector(count) ETV
attr interpolationmode none
attr recordingmode vector(count)
attr source packetDropReasonIsNoPortFound(packetDropped)
attr title "packets dropped (wrong port), count"
vector 190 SimpleNet.host[46].udp droppedPkBadChecksum:vector(count) ETV
attr interpolationmode none
attr recordingmode vector(count)
attr source packetDropReasonIsIncorrectlyReceived(packetDropped)
attr title "packets dropped (checksum error), count"
vector 191 SimpleNet.host[47].energyStorage residualEnergyCapacity:vector ETV
attr interpolationmode linear
attr recordingmode vector
attr source residualEnergyCapacityChanged
attr title "Residual energy capacity"
attr unit J
vector 192 SimpleNet.host[47].udp passedUpPk:vector(count) ETV
attr interpolationmode none
attr recordingmode vector(count)
attr source packetSentToUpper
attr title "packets passed up, count"
vector 193 SimpleNet.host[47].udp droppedPkWrongPort:vector(count) ETV
attr interpolationmode none
attr recordingmode vector(count)
attr source packetDropReasonIsNoPortFound(packetDropped)
attr title "packets dropped (wrong port), count"
vector 194 SimpleNet.host[47].udp droppedPkBadChecksum:vector(count) ETV
attr interpolationmode none
attr recordingmode vector(count)
attr source packetDropReasonIsIncorrectlyReceived(packetDropped)
attr title "packets dropped (checksum error), count"
vector 195 SimpleNet.host[48].energyStorage residualEnergyCapacity:vector ETV
attr interpolationmode linear
attr recordingmode vector
attr source residualEnergyCapacityChanged
attr title "Residual energy capacity"
attr unit J
vector 196 SimpleNet.host[48].udp passedUpPk:vector(count) ETV
attr interpolationmode none
attr recordingmode vector(count)
attr source packetSentToUpper
attr title "packets passed up, count"
vector 197 SimpleNet.host[48].udp droppedPkWrongPort:vector(count) ETV
attr interpolationmode none
attr recordingmode vector(count)
attr source packetDropReasonIsNoPortFound(packetDropped)
attr title "packets dropped (wrong port), count"
vector 198 SimpleNet.host[48].udp droppedPkBadChecksum:vector(count) ETV
attr interpolationmode none
attr recordingmode vector(count)
attr source packetDropReasonIsIncorrectlyReceived(packetDropped)
attr title "packets dropped (checksum error), count"
vector 199 SimpleNet.host[49].energyStorage residualEnergyCapacity:vector ETV
attr interpolationmode linear
attr recordingmode vector
attr source residualEnergyCapacityChanged
attr title "Residual energy capacity"
attr unit J
vector 200 SimpleNet.host[49].udp passedUpPk:vector(count) ETV
attr interpolationmode none
attr recordingmode vector(count)
attr source packetSentToUpper
attr title "packets passed up, count"
vector 201 SimpleNet.host[49].udp droppedPkWrongPort:vector(count) ETV
attr interpolationmode none
attr recordingmode vector(count)
attr source packetDropReasonIsNoPortFound(packetDropped)
attr title "packets dropped (wrong port), count"
vector 202 SimpleNet.host[49].udp droppedPkBadChecksum:vector(count) ETV
attr interpolationmode none
attr recordingmode vector(count)
attr source packetDropReasonIsIncorrectlyReceived(packetDropped)
attr title "packets dropped (checksum error), count"
vector 203 SimpleNet.host[0].energyStorage powerConsumption:vector ETV
attr interpolationmode sample-hold
attr recordingmode vector
attr source powerConsumptionChanged
attr title "Power consumption"
attr unit W
vector 204 SimpleNet.host[1].energyStorage powerConsumption:vector ETV
attr interpolationmode sample-hold
attr recordingmode vector
attr source powerConsumptionChanged
attr title "Power consumption"
attr unit W
vector 205 SimpleNet.host[2].energyStorage powerConsumption:vector ETV
attr interpolationmode sample-hold
attr recordingmode vector
attr source powerConsumptionChanged
attr title "Power consumption"
attr unit W
vector 206 SimpleNet.host[3].energyStorage powerConsumption:vector ETV
attr interpolationmode sample-hold
attr recordingmode vector
attr source powerConsumptionChanged
attr title "Power consumption"
attr unit W
vector 207 SimpleNet.host[4].energyStorage powerConsumption:vector ETV
attr interpolationmode sample-hold
attr recordingmode vector
attr source powerConsumptionChanged
attr title "Power consumption"
attr unit W
vector 208 SimpleNet.host[5].energyStorage powerConsumption:vector ETV
attr interpolationmode sample-hold
attr recordingmode vector
attr source powerConsumptionChanged
attr title "Power consumption"
attr unit W
vector 209 SimpleNet.host[6].energyStorage powerConsumption:vector ETV
attr interpolationmode sample-hold
attr recordingmode vector
attr source powerConsumptionChanged
attr title "Power consumption"
attr unit W
vector 210 SimpleNet.host[7].energyStorage powerConsumption:vector ETV
attr interpolationmode sample-hold
attr recordingmode vector
attr source powerConsumptionChanged
attr title "Power consumption"
attr unit W
vector 211 SimpleNet.host[8].energyStorage powerConsumption:vector ETV
attr interpolationmode sample-hold
attr recordingmode vector
attr source powerConsumptionChanged
attr title "Power consumption"
attr unit W
vector 212 SimpleNet.host[9].energyStorage powerConsumption:vector ETV
attr interpolationmode sample-hold
attr recordingmode vector
attr source powerConsumptionChanged
attr title "Power consumption"
attr unit W
vector 213 SimpleNet.host[10].energyStorage powerConsumption:vector ETV
attr interpolationmode sample-hold
attr recordingmode vector
attr source powerConsumptionChanged
attr title "Power consumption"
attr unit W
vector 214 SimpleNet.host[11].energyStorage powerConsumption:vector ETV
attr interpolationmode sample-hold
attr recordingmode vector
attr source powerConsumptionChanged
attr title "Power consumption"
attr unit W
vector 215 SimpleNet.host[12].energyStorage powerConsumption:vector ETV
attr interpolationmode sample-hold
attr recordingmode vector
attr source powerConsumptionChanged
attr title "Power consumption"
attr unit W
vector 216 SimpleNet.host[13].energyStorage powerConsumption:vector ETV
attr interpolationmode sample-hold
attr recordingmode vector
attr source powerConsumptionChanged
attr title "Power consumption"
attr unit W
vector 217 SimpleNet.host[14].energyStorage powerConsumption:vector ETV
attr interpolationmode sample-hold
attr recordingmode vector
attr source powerConsumptionChanged
attr title "Power consumption"
attr unit W
vector 218 SimpleNet.host[15].energyStorage powerConsumption:vector ETV
attr interpolationmode sample-hold
attr recordingmode vector
attr source powerConsumptionChanged
attr title "Power consumption"
attr unit W
vector 219 SimpleNet.host[16].energyStorage powerConsumption:vector ETV
attr interpolationmode sample-hold
attr recordingmode vector
attr source powerConsumptionChanged
attr title "Power consumption"
attr unit W
vector 220 SimpleNet.host[17].energyStorage powerConsumption:vector ETV
attr interpolationmode sample-hold
attr recordingmode vector
attr source powerConsumptionChanged
attr title "Power consumption"
attr unit W
vector 221 SimpleNet.host[18].energyStorage powerConsumption:vector ETV
attr interpolationmode sample-hold
attr recordingmode vector
attr source powerConsumptionChanged
attr title "Power consumption"
attr unit W
vector 222 SimpleNet.host[19].energyStorage powerConsumption:vector ETV
attr interpolationmode sample-hold
attr recordingmode vector
attr source powerConsumptionChanged
attr title "Power consumption"
attr unit W
vector 223 SimpleNet.host[20].energyStorage powerConsumption:vector ETV
attr interpolationmode sample-hold
attr recordingmode vector
attr source powerConsumptionChanged
attr title "Power consumption"
attr unit W
vector 224 SimpleNet.host[21].energyStorage powerConsumption:vector ETV
attr interpolationmode sample-hold
attr recordingmode vector
attr source powerConsumptionChanged
attr title "Power consumption"
attr unit W
vector 225 SimpleNet.host[22].energyStorage powerConsumption:vector ETV
attr interpolationmode sample-hold
attr recordingmode vector
attr source powerConsumptionChanged
attr title "Power consumption"
attr unit W
vector 226 SimpleNet.host[23].energyStorage powerConsumption:vector ETV
attr interpolationmode sample-hold
attr recordingmode vector
attr source powerConsumptionChanged
attr title "Power consumption"
attr unit W
vector 227 SimpleNet.host[24].energyStorage powerConsumption:vector ETV
attr interpolationmode sample-hold
attr recordingmode vector
attr source powerConsumptionChanged
attr title "Power consumption"
attr unit W
vector 228 SimpleNet.host[25].energyStorage powerConsumption:vector ETV
attr interpolationmode sample-hold
attr recordingmode vector
attr source powerConsumptionChanged
attr title "Power consumption"
attr unit W
vector 229 SimpleNet.host[26].energyStorage powerConsumption:vector ETV
attr interpolationmode sample-hold
attr recordingmode vector
attr source powerConsumptionChanged
attr title "Power consumption"
attr unit W
vector 230 SimpleNet.host[27].energyStorage powerConsumption:vector ETV
attr interpolationmode sample-hold
attr recordingmode vector
attr source powerConsumptionChanged
attr title "Power consumption"
attr unit W
vector 231 SimpleNet.host[28].energyStorage powerConsumption:vector ETV
attr interpolationmode sample-hold
attr recordingmode vector
attr source powerConsumptionChanged
attr title "Power consumption"
attr unit W
vector 232 SimpleNet.host[29].energyStorage powerConsumption:vector ETV
attr interpolationmode sample-hold
attr recordingmode vector
attr source powerConsumptionChanged
attr title "Power consumption"
attr unit W
vector 233 SimpleNet.host[30].energyStorage powerConsumption:vector ETV
attr interpolationmode sample-hold
attr recordingmode vector
attr source powerConsumptionChanged
attr title "Power consumption"
attr unit W
vector 234 SimpleNet.host[31].energyStorage powerConsumption:vector ETV
attr interpolationmode sample-hold
attr recordingmode vector
attr source powerConsumptionChanged
attr title "Power consumption"
attr unit W
vector 235 SimpleNet.host[32].energyStorage powerConsumption:vector ETV
attr interpolationmode sample-hold
attr recordingmode vector
attr source powerConsumptionChanged
attr title "Power consumption"
attr unit W
vector 236 SimpleNet.host[33].energyStorage powerConsumption:vector ETV
attr interpolationmode sample-hold
attr recordingmode vector
attr source powerConsumptionChanged
attr title "Power consumption"
attr unit W
vector 237 SimpleNet.host[34].energyStorage powerConsumption:vector ETV
attr interpolationmode sample-hold
attr recordingmode vector
attr source powerConsumptionChanged
attr title "Power consumption"
attr unit W
vector 238 SimpleNet.host[35].energyStorage powerConsumption:vector ETV
attr interpolationmode sample-hold
attr recordingmode vector
attr source powerConsumptionChanged
attr title "Power consumption"
attr unit W
vector 239 SimpleNet.host[36].energyStorage powerConsumption:vector ETV
attr interpolationmode sample-hold
attr recordingmode vector
attr source powerConsumptionChanged
attr title "Power consumption"
attr unit W
vector 240 SimpleNet.host[37].energyStorage powerConsumption:vector ETV
attr interpolationmode sample-hold
attr recordingmode vector
attr source powerConsumptionChanged
attr title "Power consumption"
attr unit W
vector 241 SimpleNet.host[38].energyStorage powerConsumption:vector ETV
attr interpolationmode sample-hold
attr recordingmode vector
attr source powerConsumptionChanged
attr title "Power consumption"
attr unit W
vector 242 SimpleNet.host[39].energyStorage powerConsumption:vector ETV
attr interpolationmode sample-hold
attr recordingmode vector
attr source powerConsumptionChanged
attr title "Power consumption"
attr unit W
vector 243 SimpleNet.host[40].energyStorage powerConsumption:vector ETV
attr interpolationmode sample-hold
attr recordingmode vector
attr source powerConsumptionChanged
attr title "Power consumption"
attr unit W
vector 244 SimpleNet.host[41].energyStorage powerConsumption:vector ETV
attr interpolationmode sample-hold
attr recordingmode vector
attr source powerConsumptionChanged
attr title "Power consumption"
attr unit W
vector 245 SimpleNet.host[42].energyStorage powerConsumption:vector ETV
attr interpolationmode sample-hold
attr recordingmode vector
attr source powerConsumptionChanged
attr title "Power consumption"
attr unit W
vector 246 SimpleNet.host[43].energyStorage powerConsumption:vector ETV
attr interpolationmode sample-hold
attr recordingmode vector
attr source powerConsumptionChanged
attr title "Power consumption"
attr unit W
vector 247 SimpleNet.host[44].energyStorage powerConsumption:vector ETV
attr interpolationmode sample-hold
attr recordingmode vector
attr source powerConsumptionChanged
attr title "Power consumption"
attr unit W
vector 248 SimpleNet.host[45].energyStorage powerConsumption:vector ETV
attr interpolationmode sample-hold
attr recordingmode vector
attr source powerConsumptionChanged
attr title "Power consumption"
attr unit W
vector 249 SimpleNet.host[46].energyStorage powerConsumption:vector ETV
attr interpolationmode sample-hold
attr recordingmode vector
attr source powerConsumptionChanged
attr title "Power consumption"
attr unit W
vector 250 SimpleNet.host[47].energyStorage powerConsumption:vector ETV
attr interpolationmode sample-hold
attr recordingmode vector
attr source powerConsumptionChanged
attr title "Power consumption"
attr unit W
vector 251 SimpleNet.host[48].energyStorage powerConsumption:vector ETV
attr interpolationmode sample-hold
attr recordingmode vector
attr source powerConsumptionChanged
attr title "Power consumption"
attr unit W
vector 252 SimpleNet.host[49].energyStorage powerConsumption:vector ETV
attr interpolationmode sample-hold
attr recordingmode vector
attr source powerConsumptionChanged
attr title "Power consumption"
attr unit W
vector 253 SimpleNet.baseStation.wlan[0].radio radioMode:vector ETV
attr interpolationmode sample-hold
attr recordingmode vector
attr source radioModeChanged
attr title "Radio mode"
vector 254 SimpleNet.host[0].wlan[0].radio radioMode:vector ETV
attr interpolationmode sample-hold
attr recordingmode vector
attr source radioModeChanged
attr title "Radio mode"
vector 255 SimpleNet.host[0].wlan[0].radio.energyConsumer powerConsumption:vector ETV
attr interpolationmode sample-hold
attr recordingmode vector
attr source powerConsumptionChanged
attr title "Power consumption"
attr unit W
vector 256 SimpleNet.host[1].wlan[0].radio radioMode:vector ETV
attr interpolationmode sample-hold
attr recordingmode vector
attr source radioModeChanged
attr title "Radio mode"
vector 257 SimpleNet.host[1].wlan[0].radio.energyConsumer powerConsumption:vector ETV
attr interpolationmode sample-hold
attr recordingmode vector
attr source powerConsumptionChanged
attr title "Power consumption"
attr unit W
vector 258 SimpleNet.host[2].wlan[0].radio radioMode:vector ETV
attr interpolationmode sample-hold
attr recordingmode vector
attr source radioModeChanged
attr title "Radio mode"
vector 259 SimpleNet.host[2].wlan[0].radio.energyConsumer powerConsumption:vector ETV
attr interpolationmode sample-hold
attr recordingmode vector
attr source powerConsumptionChanged
attr title "Power consumption"
attr unit W
vector 260 SimpleNet.host[3].wlan[0].radio radioMode:vector ETV
attr interpolationmode sample-hold
attr recordingmode vector
attr source radioModeChanged
attr title "Radio mode"
vector 261 SimpleNet.host[3].wlan[0].radio.energyConsumer powerConsumption:vector ETV
attr interpolationmode sample-hold
attr recordingmode vector
attr source powerConsumptionChanged
attr title "Power consumption"
attr unit W
vector 262 SimpleNet.host[4].wlan[0].radio radioMode:vector ETV
attr interpolationmode sample-hold
attr recordingmode vector
attr source radioModeChanged
attr title "Radio mode"
vector 263 SimpleNet.host[4].wlan[0].radio.energyConsumer powerConsumption:vector ETV
attr interpolationmode sample-hold
attr recordingmode vector
attr source powerConsumptionChanged
attr title "Power consumption"
attr unit W
vector 264 SimpleNet.host[5].wlan[0].radio radioMode:vector ETV
attr interpolationmode sample-hold
attr recordingmode vector
attr source radioModeChanged
attr title "Radio mode"
vector 265 SimpleNet.host[5].wlan[0].radio.energyConsumer powerConsumption:vector ETV
attr interpolationmode sample-hold
attr recordingmode vector
attr source powerConsumptionChanged
attr title "Power consumption"
attr unit W
vector 266 SimpleNet.host[6].wlan[0].radio radioMode:vector ETV
attr interpolationmode sample-hold
attr recordingmode vector
attr source radioModeChanged
attr title "Radio mode"
vector 267 SimpleNet.host[6].wlan[0].radio.energyConsumer powerConsumption:vector ETV
attr interpolationmode sample-hold
attr recordingmode vector
attr source powerConsumptionChanged
attr title "Power consumption"
attr unit W
vector 268 SimpleNet.host[7].wlan[0].radio radioMode:vector ETV
attr interpolationmode sample-hold
attr recordingmode vector
attr source radioModeChanged
attr title "Radio mode"
vector 269 SimpleNet.host[7].wlan[0].radio.energyConsumer powerConsumption:vector ETV
attr interpolationmode sample-hold
attr recordingmode vector
attr source powerConsumptionChanged
attr title "Power consumption"
attr unit W
vector 270 SimpleNet.host[8].wlan[0].radio radioMode:vector ETV
attr interpolationmode sample-hold
attr recordingmode vector
attr source radioModeChanged
attr title "Radio mode"
vector 271 SimpleNet.host[8].wlan[0].radio.energyConsumer powerConsumption:vector ETV
attr interpolationmode sample-hold
attr recordingmode vector
attr source powerConsumptionChanged
attr title "Power consumption"
attr unit W
vector 272 SimpleNet.host[9].wlan[0].radio radioMode:vector ETV
attr interpolationmode sample-hold
attr recordingmode vector
attr source radioModeChanged
attr title "Radio mode"
vector 273 SimpleNet.host[9].wlan[0].radio.energyConsumer powerConsumption:vector ETV
attr interpolationmode sample-hold
attr recordingmode vector
attr source powerConsumptionChanged
attr title "Power consumption"
attr unit W
vector 274 SimpleNet.host[10].wlan[0].radio radioMode:vector ETV
attr interpolationmode sample-hold
attr recordingmode vector
attr source radioModeChanged
attr title "Radio mode"
vector 275 SimpleNet.host[10].wlan[0].radio.energyConsumer powerConsumption:vector ETV
attr interpolationmode sample-hold
attr recordingmode vector
attr source powerConsumptionChanged
attr title "Power consumption"
attr unit W
vector 276 SimpleNet.host[11].wlan[0].radio radioMode:vector ETV
attr interpolationmode sample-hold
attr recordingmode vector
attr source radioModeChanged
attr title "Radio mode"
vector 277 SimpleNet.host[11].wlan[0].radio.energyConsumer powerConsumption:vector ETV
attr interpolationmode sample-hold
attr recordingmode vector
attr source powerConsumptionChanged
attr title "Power consumption"
attr unit W
vector 278 SimpleNet.host[12].wlan[0].radio radioMode:vector ETV
attr interpolationmode sample-hold
attr recordingmode vector
attr source radioModeChanged
attr title "Radio mode"
vector 279 SimpleNet.host[12].wlan[0].radio.energyConsumer powerConsumption:vector ETV
attr interpolationmode sample-hold
attr recordingmode vector
attr source powerConsumptionChanged
attr title "Power consumption"
attr unit W
vector 280 SimpleNet.host[13].wlan[0].radio radioMode:vector ETV
attr interpolationmode sample-hold
attr recordingmode vector
attr source radioModeChanged
attr title "Radio mode"
vector 281 SimpleNet.host[13].wlan[0].radio.energyConsumer powerConsumption:vector ETV
attr interpolationmode sample-hold
attr recordingmode vector
attr source powerConsumptionChanged
attr title "Power consumption"
attr unit W
vector 282 SimpleNet.host[14].wlan[0].radio radioMode:vector ETV
attr interpolationmode sample-hold
attr recordingmode vector
attr source radioModeChanged
attr title "Radio mode"
vector 283 SimpleNet.host[14].wlan[0].radio.energyConsumer powerConsumption:vector ETV
attr interpolationmode sample-hold
attr recordingmode vector
attr source powerConsumptionChanged
attr title "Power consumption"
attr unit W
vector 284 SimpleNet.host[15].wlan[0].radio radioMode:vector ETV
attr interpolationmode sample-hold
attr recordingmode vector
attr source radioModeChanged
attr title "Radio mode"
vector 285 SimpleNet.host[15].wlan[0].radio.energyConsumer powerConsumption:vector ETV
attr interpolationmode sample-hold
attr recordingmode vector
attr source powerConsumptionChanged
attr title "Power consumption"
attr unit W
vector 286 SimpleNet.host[16].wlan[0].radio radioMode:vector ETV
attr interpolationmode sample-hold
attr recordingmode vector
attr source radioModeChanged
attr title "Radio mode"
vector 287 SimpleNet.host[16].wlan[0].radio.energyConsumer powerConsumption:vector ETV
attr interpolationmode sample-hold
attr recordingmode vector
attr source powerConsumptionChanged
attr title "Power consumption"
attr unit W
vector 288 SimpleNet.host[17].wlan[0].radio radioMode:vector ETV
attr interpolationmode sample-hold
attr recordingmode vector
attr source radioModeChanged
attr title "Radio mode"
vector 289 SimpleNet.host[17].wlan[0].radio.energyConsumer powerConsumption:vector ETV
attr interpolationmode sample-hold
attr recordingmode vector
attr source powerConsumptionChanged
attr title "Power consumption"
attr unit W
vector 290 SimpleNet.host[18].wlan[0].radio radioMode:vector ETV
attr interpolationmode sample-hold
attr recordingmode vector
attr source radioModeChanged
attr title "Radio mode"
vector 291 SimpleNet.host[18].wlan[0].radio.energyConsumer powerConsumption:vector ETV
attr interpolationmode sample-hold
attr recordingmode vector
attr source powerConsumptionChanged
attr title "Power consumption"
attr unit W
vector 292 SimpleNet.host[19].wlan[0].radio radioMode:vector ETV
attr interpolationmode sample-hold
attr recordingmode vector
attr source radioModeChanged
attr title "Radio mode"
vector 293 SimpleNet.host[19].wlan[0].radio.energyConsumer powerConsumption:vector ETV
attr interpolationmode sample-hold
attr recordingmode vector
attr source powerConsumptionChanged
attr title "Power consumption"
attr unit W
vector 294 SimpleNet.host[20].wlan[0].radio radioMode:vector ETV
attr interpolationmode sample-hold
attr recordingmode vector
attr source radioModeChanged
attr title "Radio mode"
vector 295 SimpleNet.host[20].wlan[0].radio.energyConsumer powerConsumption:vector ETV
attr interpolationmode sample-hold
attr recordingmode vector
attr source powerConsumptionChanged
attr title "Power consumption"
attr unit W
vector 296 SimpleNet.host[21].wlan[0].radio radioMode:vector ETV
attr interpolationmode sample-hold
attr recordingmode vector
attr source radioModeChanged
attr title "Radio mode"
vector 297 SimpleNet.host[21].wlan[0].radio.energyConsumer powerConsumption:vector ETV
attr interpolationmode sample-hold
attr recordingmode vector
attr source powerConsumptionChanged
attr title "Power consumption"
attr unit W
vector 298 SimpleNet.host[22].wlan[0].radio radioMode:vector ETV
attr interpolationmode sample-hold
attr recordingmode vector
attr source radioModeChanged
attr title "Radio mode"
vector 299 SimpleNet.host[22].wlan[0].radio.energyConsumer powerConsumption:vector ETV
attr interpolationmode sample-hold
attr recordingmode vector
attr source powerConsumptionChanged
attr title "Power consumption"
attr unit W
vector 300 SimpleNet.host[23].wlan[0].radio radioMode:vector ETV
attr interpolationmode sample-hold
attr recordingmode vector
attr source radioModeChanged
attr title "Radio mode"
vector 301 SimpleNet.host[23].wlan[0].radio.energyConsumer powerConsumption:vector ETV
attr interpolationmode sample-hold
attr recordingmode vector
attr source powerConsumptionChanged
attr title "Power consumption"
attr unit W
vector 302 SimpleNet.host[24].wlan[0].radio radioMode:vector ETV
attr interpolationmode sample-hold
attr recordingmode vector
attr source radioModeChanged
attr title "Radio mode"
vector 303 SimpleNet.host[24].wlan[0].radio.energyConsumer powerConsumption:vector ETV
attr interpolationmode sample-hold
attr recordingmode vector
attr source powerConsumptionChanged
attr title "Power consumption"
attr unit W
vector 304 SimpleNet.host[25].wlan[0].radio radioMode:vector ETV
attr interpolationmode sample-hold
attr recordingmode vector
attr source radioModeChanged
attr title "Radio mode"
vector 305 SimpleNet.host[25].wlan[0].radio.energyConsumer powerConsumption:vector ETV
attr interpolationmode sample-hold
attr recordingmode vector
attr source powerConsumptionChanged
attr title "Power consumption"
attr unit W
vector 306 SimpleNet.host[26].wlan[0].radio radioMode:vector ETV
attr interpolationmode sample-hold
attr recordingmode vector
attr source radioModeChanged
attr title "Radio mode"
vector 307 SimpleNet.host[26].wlan[0].radio.energyConsumer powerConsumption:vector ETV
attr interpolationmode sample-hold
attr recordingmode vector
attr source powerConsumptionChanged
attr title "Power consumption"
attr unit W
vector 308 SimpleNet.host[27].wlan[0].radio radioMode:vector ETV
attr interpolationmode sample-hold
attr recordingmode vector
attr source radioModeChanged
attr title "Radio mode"
vector 309 SimpleNet.host[27].wlan[0].radio.energyConsumer powerConsumption:vector ETV
attr interpolationmode sample-hold
attr recordingmode vector
attr source powerConsumptionChanged
attr title "Power consumption"
attr unit W
vector 310 SimpleNet.host[28].wlan[0].radio radioMode:vector ETV
attr interpolationmode sample-hold
attr recordingmode vector
attr source radioModeChanged
attr title "Radio mode"
vector 311 SimpleNet.host[28].wlan[0].radio.energyConsumer powerConsumption:vector ETV
attr interpolationmode sample-hold
attr recordingmode vector
attr source powerConsumptionChanged
attr title "Power consumption"
attr unit W
vector 312 SimpleNet.host[29].wlan[0].radio radioMode:vector ETV
attr interpolationmode sample-hold
attr recordingmode vector
attr source radioModeChanged
attr title "Radio mode"
vector 313 SimpleNet.host[29].wlan[0].radio.energyConsumer powerConsumption:vector ETV
attr interpolationmode sample-hold
attr recordingmode vector
attr source powerConsumptionChanged
attr title "Power consumption"
attr unit W
vector 314 SimpleNet.host[30].wlan[0].radio radioMode:vector ETV
attr interpolationmode sample-hold
attr recordingmode vector
attr source radioModeChanged
attr title "Radio mode"
vector 315 SimpleNet.host[30].wlan[0].radio.energyConsumer powerConsumption:vector ETV
attr interpolationmode sample-hold
attr recordingmode vector
attr source powerConsumptionChanged
attr title "Power consumption"
attr unit W
vector 316 SimpleNet.host[31].wlan[0].radio radioMode:vector ETV
attr interpolationmode sample-hold
attr recordingmode vector
attr source radioModeChanged
attr title "Radio mode"
vector 317 SimpleNet.host[31].wlan[0].radio.energyConsumer powerConsumption:vector ETV
attr interpolationmode sample-hold
attr recordingmode vector
attr source powerConsumptionChanged
attr title "Power consumption"
attr unit W
vector 318 SimpleNet.host[32].wlan[0].radio radioMode:vector ETV
attr interpolationmode sample-hold
attr recordingmode vector
attr source radioModeChanged
attr title "Radio mode"
vector 319 SimpleNet.host[32].wlan[0].radio.energyConsumer powerConsumption:vector ETV
attr interpolationmode sample-hold
attr recordingmode vector
attr source powerConsumptionChanged
attr title "Power consumption"
attr unit W
vector 320 SimpleNet.host[33].wlan[0].radio radioMode:vector ETV
attr interpolationmode sample-hold
attr recordingmode vector
attr source radioModeChanged
attr title "Radio mode"
vector 321 SimpleNet.host[33].wlan[0].radio.energyConsumer powerConsumption:vector ETV
attr interpolationmode sample-hold
attr recordingmode vector
attr source powerConsumptionChanged
attr title "Power consumption"
attr unit W
vector 322 SimpleNet.host[34].wlan[0].radio radioMode:vector ETV
attr interpolationmode sample-hold
attr recordingmode vector
attr source radioModeChanged
attr title "Radio mode"
vector 323 SimpleNet.host[34].wlan[0].radio.energyConsumer powerConsumption:vector ETV
attr interpolationmode sample-hold
attr recordingmode vector
attr source powerConsumptionChanged
attr title "Power consumption"
attr unit W
vector 324 SimpleNet.host[35].wlan[0].radio radioMode:vector ETV
attr interpolationmode sample-hold
attr recordingmode vector
attr source radioModeChanged
attr title "Radio mode"
vector 325 SimpleNet.host[35].wlan[0].radio.energyConsumer powerConsumption:vector ETV
attr interpolationmode sample-hold
attr recordingmode vector
attr source powerConsumptionChanged
attr title "Power consumption"
attr unit W
vector 326 SimpleNet.host[36].wlan[0].radio radioMode:vector ETV
attr interpolationmode sample-hold
attr recordingmode vector
attr source radioModeChanged
attr title "Radio mode"
vector 327 SimpleNet.host[36].wlan[0].radio.energyConsumer powerConsumption:vector ETV
attr interpolationmode sample-hold
attr recordingmode vector
attr source powerConsumptionChanged
attr title "Power consumption"
attr unit W
vector 328 SimpleNet.host[37].wlan[0].radio radioMode:vector ETV
attr interpolationmode sample-hold
attr recordingmode vector
attr source radioModeChanged
attr title "Radio mode"
vector 329 SimpleNet.host[37].wlan[0].radio.energyConsumer powerConsumption:vector ETV
attr interpolationmode sample-hold
attr recordingmode vector
attr source powerConsumptionChanged
attr title "Power consumption"
attr unit W
vector 330 SimpleNet.host[38].wlan[0].radio radioMode:vector ETV
attr interpolationmode sample-hold
attr recordingmode vector
attr source radioModeChanged
attr title "Radio mode"
vector 331 SimpleNet.host[38].wlan[0].radio.energyConsumer powerConsumption:vector ETV
attr interpolationmode sample-hold
attr recordingmode vector
attr source powerConsumptionChanged
attr title "Power consumption"
attr unit W
vector 332 SimpleNet.host[39].wlan[0].radio radioMode:vector ETV
attr interpolationmode sample-hold
attr recordingmode vector
attr source radioModeChanged
attr title "Radio mode"
vector 333 SimpleNet.host[39].wlan[0].radio.energyConsumer powerConsumption:vector ETV
attr interpolationmode sample-hold
attr recordingmode vector
attr source powerConsumptionChanged
attr title "Power consumption"
attr unit W
vector 334 SimpleNet.host[40].wlan[0].radio radioMode:vector ETV
attr interpolationmode sample-hold
attr recordingmode vector
attr source radioModeChanged
attr title "Radio mode"
vector 335 SimpleNet.host[40].wlan[0].radio.energyConsumer powerConsumption:vector ETV
attr interpolationmode sample-hold
attr recordingmode vector
attr source powerConsumptionChanged
attr title "Power consumption"
attr unit W
vector 336 SimpleNet.host[41].wlan[0].radio radioMode:vector ETV
attr interpolationmode sample-hold
attr recordingmode vector
attr source radioModeChanged
attr title "Radio mode"
vector 337 SimpleNet.host[41].wlan[0].radio.energyConsumer powerConsumption:vector ETV
attr interpolationmode sample-hold
attr recordingmode vector
attr source powerConsumptionChanged
attr title "Power consumption"
attr unit W
vector 338 SimpleNet.host[42].wlan[0].radio radioMode:vector ETV
attr interpolationmode sample-hold
attr recordingmode vector
attr source radioModeChanged
attr title "Radio mode"
vector 339 SimpleNet.host[42].wlan[0].radio.energyConsumer powerConsumption:vector ETV
attr interpolationmode sample-hold
attr recordingmode vector
attr source powerConsumptionChanged
attr title "Power consumption"
attr unit W
vector 340 SimpleNet.host[43].wlan[0].radio radioMode:vector ETV
attr interpolationmode sample-hold
attr recordingmode vector
attr source radioModeChanged
attr title "Radio mode"
vector 341 SimpleNet.host[43].wlan[0].radio.energyConsumer powerConsumption:vector ETV
attr interpolationmode sample-hold
attr recordingmode vector
attr source powerConsumptionChanged
attr title "Power consumption"
attr unit W
vector 342 SimpleNet.host[44].wlan[0].radio radioMode:vector ETV
attr interpolationmode sample-hold
attr recordingmode vector
attr source radioModeChanged
attr title "Radio mode"
vector 343 SimpleNet.host[44].wlan[0].radio.energyConsumer powerConsumption:vector ETV
attr interpolationmode sample-hold
attr recordingmode vector
attr source powerConsumptionChanged
attr title "Power consumption"
attr unit W
vector 344 SimpleNet.host[45].wlan[0].radio radioMode:vector ETV
attr interpolationmode sample-hold
attr recordingmode vector
attr source radioModeChanged
attr title "Radio mode"
vector 345 SimpleNet.host[45].wlan[0].radio.energyConsumer powerConsumption:vector ETV
attr interpolationmode sample-hold
attr recordingmode vector
attr source powerConsumptionChanged
attr title "Power consumption"
attr unit W
vector 346 SimpleNet.host[46].wlan[0].radio radioMode:vector ETV
attr interpolationmode sample-hold
attr recordingmode vector
attr source radioModeChanged
attr title "Radio mode"
vector 347 SimpleNet.host[46].wlan[0].radio.energyConsumer powerConsumption:vector ETV
attr interpolationmode sample-hold
attr recordingmode vector
attr source powerConsumptionChanged
attr title "Power consumption"
attr unit W
vector 348 SimpleNet.host[47].wlan[0].radio radioMode:vector ETV
attr interpolationmode sample-hold
attr recordingmode vector
attr source radioModeChanged
attr title "Radio mode"
vector 349 SimpleNet.host[47].wlan[0].radio.energyConsumer powerConsumption:vector ETV
attr interpolationmode sample-hold
attr recordingmode vector
attr source powerConsumptionChanged
[...]
305	550873 1318 0 2532 0 0.662848010062 47 0 0.1 0.275 0.011305
306	552191 33 0 0 0 0 3 0 2 2 4
307	552224 1081 0 2511 0 0.662847932792 39 0 0.01 0.182 0.001464
308	553305 33 0 0 0 0 3 0 2 2 4
309	553338 841 0 2544 0 0.662848106649 31 0 0.01 0.118 0.000956
310	554179 33 0 0 0 0 3 0 2 2 4
311	554212 870 0 2169 0 0.652424406849 32 0 0.01 0.116 0.000852
312	555082 33 0 0 0 0 3 0 2 2 4
313	555115 837 0 2523 0 0.66284795632 31 0 0.01 0.118 0.000956
314	555952 33 0 0 0 0 3 0 2 2 4
315	555985 780 0 2517 0 0.662847944737 29 0 0.01 0.104 0.000748
316	556765 87 0 1191 0 0.436618919331 5 0 3 7 17
317	556852 1317 0 2565 0 0.662848279261 47 0 0.1 0.267 0.011259
318	558169 33 0 0 0 0 3 0 2 2 4
319	558202 1078 0 2550 0 0.662848190812 39 0 0.01 0.172 0.001364
320	559280 33 0 0 0 0 3 0 2 2 4
321	559313 1079 0 2571 0 0.662848324644 39 0 0.01 0.172 0.001364
322	560392 33 0 0 0 0 3 0 2 2 4
323	560425 735 0 2574 0 0.66284834154 27 0 0.01 0.094 0.000648
324	561160 33 0 0 0 0 3 0 2 2 4
325	561193 999 0 2580 0 0.662848378104 36 0 0.01 0.157 0.001239
326	562192 33 0 0 0 0 3 0 2 2 4
327	562225 811 0 2168 0 0.652424391365 30 0 0.01 0.106 0.000802
328	563036 33 0 0 0 0 3 0 2 2 4
329	563069 1023 0 2505 0 0.662847897527 37 0 0.01 0.165 0.001285
330	564092 87 0 1361 0 0.449640173685 5 0 3 7 17
331	564179 1138 0 2493 0 0.662847671003 41 0 0.1 0.231 0.010947
332	565317 33 0 0 0 0 3 0 2 2 4
333	565350 911 0 2508 0 0.662847903959 33 0 0.01 0.14 0.00111
334	566261 33 0 0 0 0 3 0 2 2 4
335	566294 1000 0 2584 0 0.662848428445 36 0 0.01 0.157 0.001239
336	567294 33 0 0 0 0 3 0 2 2 4
337	567327 695 0 1829 0 0.619936479221 26 0 0.01 0.089 0.000673
338	568022 33 0 0 0 0 3 0 2 2 4
339	568055 959 0 2553 0 0.662848208286 35 0 0.01 0.14 0.00111
340	569014 33 0 0 0 0 3 0 2 2 4
341	569047 551 0 2577 0 0.662848360445 21 0 0.01 0.073 0.000561
342	569598 33 0 0 0 0 3 0 2 2 4
343	569631 872 0 2114 0 0.63824651327 32 0 0.01 0.118 0.000856
344	570503 33 0 0 0 0 3 0 2 2 4
345	570536 570 0 1834 0 0.619936905625 22 0 0.01 0.075 0.000565
346	571106 33 0 0 0 0 3 0 2 2 4
347	571139 1079 0 2556 0 0.662848225067 39 0 0.01 0.16 0.00121
348	572218 33 0 0 0 0 3 0 2 2 4
349	572251 765 0 2583 0 0.662848424876 28 0 0.01 0.094 0.000598
350	573016 33 0 0 0 0 3 0 2 2 4
351	573049 869 0 2171 0 0.652424498512 32 0 0.01 0.14 0.00116
352	573918 33 0 0 0 0 3 0 2 2 4
353	573951 915 0 2547 0 0.662848145287 33 0 0.01 0.128 0.000906
354	574866 699 0 2529 0 0.662847987484 27 1 3 51 121
355	575565 748 0 2582 0 0.66284841795 29 0 3 48 102
356	576313 538 0 2117 0 0.638246555235 21 0 3 35 77
357	576851 750 0 2581 0 0.662848385246 29 1 3 54 126
358	577601 650 0 2492 0 0.662847538374 25 0 3 44 102
359	578251 327 0 1713 0 0.571359484359 13 1 3 24 56
360	578578 808 0 2526 0 0.662847964532 31 1 3 59 141
361	579386 806 0 2559 0 0.662848257585 31 1 3 57 131
362	580192 746 0 2496 0 0.662847815516 29 0 3 51 117
363	580938 490 0 2562 0 0.662848269693 19 1 3 34 76
364	581428 647 0 2585 0 0.662848469843 25 0 3 40 82
365	582075 538 0 2119 0 0.638246605683 21 1 3 38 86
366	582613 489 0 2541 0 0.662848104991 19 0 3 34 82
367	583102 221 0 1598 0 0.472487066618 9 1 3 16 36
368	583323 593 0 2104 0 0.638246419003 23 1 3 42 96
369	583916 593 0 2098 0 0.638246415713 23 0 3 41 97
370	584509 592 0 2120 0 0.638246608285 23 0 3 37 77
371	585101 491 0 2514 0 0.662847942255 19 1 3 37 91
372	585592 487 0 2079 0 0.638246363887 19 1 3 35 81
373	586079 649 0 2535 0 0.662848039918 25 1 3 47 111
374	586728 543 0 2502 0 0.66284787826 21 1 3 38 86
375	587271 803 0 2538 0 0.662848068583 31 0 3 52 118
376	588074 491 0 2520 0 0.662847952076 19 0 3 34 82
377	588565 749 0 2568 0 0.6628482995 29 1 3 55 131
378	589314 592 0 2499 0 0.66284782081 23 0 3 40 92
379	589906 381 0 1722 0 0.571359533637 15 0 3 25 57
380	590287 807 0 2532 0 0.662848010062 31 0 3 55 127
381	591094 799 0 2511 0 0.662847932792 31 1 3 59 141
382	591893 489 0 2544 0 0.662848106649 19 1 3 37 91
383	592382 485 0 2055 0 0.638246183724 19 1 3 35 81
384	592867 487 0 2523 0 0.66284795632 19 1 3 37 91
385	593354 485 0 2517 0 0.662847944737 19 1 3 34 76
386	593839 753 0 2565 0 0.662848279261 29 0 3 52 122
387	594592 749 0 2550 0 0.662848190812 29 1 3 55 131
388	595341 748 0 2571 0 0.662848324644 29 1 3 55 131
389	596089 490 0 2574 0 0.66284834154 19 1 3 33 71
390	596579 699 0 2580 0 0.662848378104 27 1 3 51 121
391	597278 434 0 2049 0 0.638246174736 17 1 3 32 76
392	597712 747 0 2505 0 0.662847897527 29 1 3 54 126
393	598459 597 0 2493 0 0.662847671003 23 0 3 40 92
394	599056 649 0 2508 0 0.662847903959 25 1 3 47 111
395	599705 700 0 2584 0 0.662848428445 27 1 3 51 121
396	600405 379 0 1683 0 0.571359048655 15 1 3 28 66
397	600784 592 0 2553 0 0.662848208286 23 1 3 44 106
398	601376 331 0 2577 0 0.662848360445 13 1 3 24 56
399	601707 534 0 2114 0 0.63824651327 21 1 3 38 86
400	602241 321 0 1716 0 0.57135949903 13 1 3 24 56
401	602562 697 0 2556 0 0.662848225067 27 1 3 50 116
402	603259 490 0 2583 0 0.662848424876 19 1 3 32 66
403	603749 587 0 2082 0 0.638246363933 23 1 3 45 111
404	604336 647 0 2547 0 0.662848145287 25 1 3 44 96
405	604983 55 3 1958 0.033625093754 0.636851610149 2 288 288 576 165888
406	605038 102 3 1960 0.033625093754 0.637619610149 4 0 1 2 2
407	605140 106 3 1960 0.033625093754 0.637619610149 4 0 288 576 165888
408	605246 206 5 2012 0.034393093754 0.638245610149 8 0 2 8 12
409	605452 65 5 1960 0.034393093754 0.637619610149 2 0.000768 0.000768 0.001536 1.179648e-06
410	605517 55 5 1960 0.034393093754 0.637619610149 2 288 288 576 165888
411	605572 454 58 2532 0.035019165078 0.662848010062 11 0 9.6195805945357e-05 0.00015588140502313 1.1073183598606e-08
412	606026 578 61 2511 0.035019256969 0.662847932792 13 5.5725308720922e-229 0.00016463505603155 0.00031647290727703 4.1977040780572e-08
413	606604 445 64 2556 0.03501927519 0.662848225067 10 7.9980836963235e-61 7.2789238495519e-05 0.00017124107919481 9.9619339687175e-09
414	607049 490 67 2559 0.035019288558 0.662848257585 11 1.1804841283791e-63 0.00013378024673531 0.00028910652494374 2.6962252723362e-08
415	607539 444 70 2496 0.035019353966 0.662847815516 10 3.6571891958421e-52 2.0774487540757e-06 3.1199679107211e-06 4.6837153614954e-12
416	607983 444 73 2553 0.035019431875 0.662848208286 10 6.4807723394022e-19 2.1814762196665e-05 3.0600871155973e-05 5.1275237337871e-10
417	608427 309 76 2031 0.035019462138 0.638245978533 7 3.1690206342479e-16 7.0071455749126e-06 1.2035070632171e-05 6.928279111456e-11
418	608736 581 79 2526 0.035019544609 0.662847964532 13 1.3676897716415e-22 0.00017625871571609 0.00020726291087451 3.1565792619195e-08
419	609317 486 82 2037 0.035019559512 0.638246075907 11 6.5902864125568e-24 4.2455092421738e-05 5.2342143988403e-05 1.8513381633868e-09
420	609803 487 85 2040 0.035019567758 0.638246084153 11 2.3654998456139e-33 4.8772760965704e-05 0.00010033466487845 3.7481514443152e-09
421	610290 403 88 2369 0.035019623963 0.654915229134 9 6.3946536418291e-112 2.9240739060389e-05 2.9334499605385e-05 8.5502649580501e-10
422	610693 531 91 2571 0.03501965586 0.662848324644 12 1.1334169829534e-70 7.6273497273331e-05 9.6962513788352e-05 6.2320042529182e-09
423	611224 310 94 2049 0.035019658341 0.638246174736 7 2.1422706945671e-40 0.00012738381822259 0.0001549697302345 1.6736781157904e-08
424	611534 354 97 2499 0.035019662195 0.66284782081 8 1.0915706720766e-60 8.1147004772025e-08 1.7865511933953e-07 1.3437356586331e-14
425	611888 311 100 2055 0.035019667329 0.638246183724 7 1.1685574259568e-42 0.00013556671664206 0.00014446309576908 1.8425113048467e-08
426	612199 535 103 2550 0.035019679811 0.662848190812 12 2.9372226035031e-247 7.2911890324205e-05 9.1168389223852e-05 5.4746813550204e-09
427	612734 357 106 2493 0.035019689465 0.662847671003 8 6.3946536418291e-112 2.8925982191204e-07 6.0470592697454e-07 1.6802664674273e-13
428	613091 487 109 2505 0.035019714486 0.662847897527 11 5.6440536665581e-17 4.9122292663548e-05 7.8190240848637e-05 3.0761619374481e-09
429	613578 487 112 2565 0.03501973474 0.662848279261 11 6.5915167614883e-23 8.1176186366187e-05 0.00011998122095118 7.4718422677971e-09
430	614065 514 115 2568 0.035019738677 0.6628482995 12 0 5.0245916428921e-05 0.00010442344613764 4.6381801935686e-09
431	614579 399 118 2523 0.035019765054 0.66284795632 9 4.1392951714975e-99 4.594100282586e-06 1.1652646705052e-05 4.8224110377571e-11
432	614978 358 121 2541 0.03501983298 0.662848104991 8 2.2990590876156e-29 2.8140701665107e-05 8.2830390832514e-05 2.183355442038e-09
433	615336 310 124 2079 0.035019847492 0.638246363887 7 5.6633499517445e-15 0.00016459814263269 0.00033109726659876 3.7954647389627e-08
434	615646 485 127 2082 0.035019847538 0.638246363933 11 1.0577577143592e-115 0.00014716700377044 0.00025168755383515 2.5393817543616e-08
435	616131 385 130 2514 0.035019850049 0.662847942255 9 0 4.1257514774539e-05 0.00010371695635836 3.8471098516135e-09
436	616516 358 136 2520 0.035019872952 0.662847952076 8 1.3060479474303e-45 6.6385923219849e-05 0.00016813039291165 1.0038565905929e-08
437	616874 445 139 2508 0.035019876546 0.662847903959 10 1.9039955048197e-16 7.1271593974837e-05 0.00019565754074845 1.1022683571178e-08
438	617319 483 142 2095 0.035019882736 0.638246399131 11 8.0218944552239e-89 0.0001161975723869 0.00036837547936677 2.925326824914e-08
439	617802 401 145 2098 0.035019899318 0.638246415713 9 1.0450623755077e-78 0.00010943059595265 0.00031638986398663 3.3205105765145e-08
440	618203 445 148 2535 0.035019899433 0.662848039918 10 1.4540756984806e-09 0.00010965683662972 0.00033269798793593 3.0084065857152e-08
441	618648 27 149 149 0.035019899433 0.035019899433 1 45 45 45 2025
442	618675 353 150 2104 0.035019902608 0.638246419003 8 9.9522121312223e-19 0.00017508914317496 0.00045376469484465 5.9699539243617e-08
443	619028 403 153 2544 0.035019928514 0.662848106649 9 1.3291421309372e-100 0.00018060497504853 0.00051202529401394 8.4641931605134e-08
444	619431 28 176 176 0.092373886611 0.092373886611 1 288 288 288 82944
445	619459 52 176 178 0.092373886611 0.094741886611 2 0 1 1 1
446	619511 54 176 178 0.092373886611 0.094741886611 2 0 288 288 82944
447	619565 104 178 230 0.094741886611 0.095367886611 4 0 2 4 6
448	619669 33 178 178 0.094741886611 0.094741886611 1 0.002368 0.002368 0.002368 5.607424e-06
449	619702 28 178 178 0.094741886611 0.094741886611 1 288 288 288 82944
450	619730 265 234 1719 0.095368045446 0.571359527846 6 1.0450623755077e-78 3.101755202904e-05 3.985354919893e-05 1.0129727291766e-09
451	619995 310 237 1734 0.095368073184 0.571359607312 7 1.2332803556923e-190 0.00012024711542279 0.00013392806626146 1.4560689162954e-08
452	620305 310 240 1698 0.09536811471 0.571359322365 7 8.9471919988421e-40 0.00011339054114558 0.00011344967770763 1.285741740329e-08
453	620615 222 255 1722 0.095368303849 0.571359533637 5 2.9145289668448e-23 8.1176186366187e-05 0.00016026888178497 1.2712358210501e-08
454	620837 264 264 1683 0.095368371213 0.571359048655 6 6.9321841626924e-105 1.7581646813133e-08 1.9160801654777e-08 3.1057809928457e-16
455	621101 221 270 1213 0.095368415256 0.436619282406 5 3.8577374963003e-66 8.4907507758376e-07 1.5360027295074e-06 1.1807448338675e-12
456	621322 221 285 1686 0.095368516871 0.571359085293 5 3.8577374963003e-66 7.8243619861662e-05 0.00011041589636673 7.085485971546e-09
457	621543 131 288 733 0.095368527166 0.322071862113 3 3.4171303203929e-09 1.6730764843088e-06 2.4119814593906e-06 3.3401389689184e-12
458	621674 219 297 1716 0.09536858598 0.57135949903 5 8.4040193178664e-16 4.1064401453406e-05 5.3190254194729e-05 1.7957456039506e-09
459	621893 221 300 1713 0.095368613526 0.571359484359 5 7.2346564592314e-13 2.7136866301525e-05 5.3520414706796e-05 1.2056017604075e-09
460	622114 428 309 2538 0.095368692175 0.662848068583 10 0 0.00010943059595265 0.0002060360723781 1.7177021014682e-08
461	622542 28 344 344 0.135474068578 0.135474068578 1 288 288 288 82944
462	622570 15 344 344 0.1 0.1 1 0 0 0 0
463	622585 52 344 346 0.135474068578 0.135922068578 2 0 1 1 1
464	622637 54 344 346 0.135474068578 0.135922068578 2 0 288 288 82944
465	622691 104 346 398 0.135922068578 0.136548068578 4 0 2 4 6
466	622795 33 346 346 0.135922068578 0.135922068578 1 0.000448 0.000448 0.000448 2.00704e-07
467	622828 28 346 346 0.135922068578 0.135922068578 1 288 288 288 82944
468	622856 15 346 346 0.1 0.1 1 0 0 0 0
469	622871 266 405 2562 0.136548246298 0.662848269693 6 2.6498698250953e-63 0.00015237737717332 0.00017629619965169 2.3764967830226e-08
470	623137 223 408 2574 0.136548314577 0.66284834154 5 5.0423044526901e-34 0.00010477227066274 0.00011475579251543 1.1076757014794e-08
471	623360 221 420 2577 0.136548369539 0.662848360445 5 2.2243088984183e-23 0.00014618442315363 0.00015543155957282 2.145466127613e-08
472	623581 178 423 2378 0.13654838862 0.654915365288 4 6.7937055293892e-21 5.9859229955393e-05 6.0304217026561e-05 3.5833000402023e-09
473	623759 266 429 2517 0.13654860162 0.662847944737 6 3.4226228208604e-29 4.5639056365478e-06 4.5755307888038e-06 2.0829369800527e-11
474	624025 313 441 2502 0.136548728384 0.66284787826 7 1.1274200787618e-23 0.00012179239345137 0.00012568250742694 1.4844103943031e-08
475	624338 28 498 498 0.301574816229 0.301574816229 1 288 288 288 82944
476	624366 45 498 498 0.1 0.3 3 0 0 0 0
477	624411 52 498 500 0.301574816229 0.302022816229 2 0 1 1 1
478	624463 54 498 500 0.301574816229 0.302022816229 2 0 288 288 82944
479	624517 104 500 552 0.302022816229 0.302648816229 4 0 2 4 6
480	624621 33 500 500 0.302022816229 0.302022816229 1 0.000448 0.000448 0.000448 2.00704e-07
481	624654 28 500 500 0.302022816229 0.302022816229 1 288 288 288 82944
482	624682 45 500 500 0.1 0.3 3 0 0 0 0
483	624727 28 654 654 0.320997243747 0.320997243747 1 288 288 288 82944
484	624755 45 654 654 0.1 0.3 3 0 0 0 0
485	624800 52 654 656 0.320997243747 0.321445243747 2 0 1 1 1
486	624852 54 654 656 0.320997243747 0.321445243747 2 0 288 288 82944
487	624906 104 656 708 0.321445243747 0.322071243747 4 0 2 4 6
488	625010 33 656 656 0.321445243747 0.321445243747 1 0.000448 0.000448 0.000448 2.00704e-07
489	625043 28 656 656 0.321445243747 0.321445243747 1 288 288 288 82944
490	625071 45 656 656 0.1 0.3 3 0 0 0 0
491	625116 28 804 804 0.428768698592 0.428768698592 1 288 288 288 82944
492	625144 60 804 804 0.1 0.4 4 0 0 0 0
493	625204 52 804 806 0.428768698592 0.428896698592 2 0 1 1 1
494	625256 54 804 806 0.428768698592 0.428896698592 2 0 288 288 82944
495	625310 104 806 858 0.428896698592 0.429522698592 4 0 2 4 6
496	625414 33 806 806 0.428896698592 0.428896698592 1 0.000128 0.000128 0.000128 1.6384e-08
497	625447 28 806 806 0.428896698592 0.428896698592 1 288 288 288 82944
498	625475 60 806 806 0.1 0.4 4 0 0 0 0
499	625535 314 880 2547 0.429523184483 0.662848145287 7 4.4507813830298e-10 0.00012892840768756 0.00015575029681278 1.6966250620112e-08
500	625849 28 959 959 0.431418434484 0.431418434484 1 288 288 288 82944
501	625877 60 959 959 0.1 0.4 4 0 0 0 0
502	625937 52 959 961 0.431418434484 0.432506434484 2 0 1 1 1
503	625989 54 959 961 0.431418434484 0.432506434484 2 0 288 288 82944
504	626043 106 961 1013 0.432506434484 0.433132434484 4 0 2 4 6
505	626149 33 961 961 0.432506434484 0.432506434484 1 0.001088 0.001088 0.001088 1.183744e-06
506	626182 28 961 961 0.432506434484 0.432506434484 1 288 288 288 82944
507	626210 60 961 961 0.1 0.4 4 0 0 0 0
508	626270 29 1137 1137 0.435864919331 0.435864919331 1 288 288 288 82944
509	626299 64 1137 1137 0.1 0.4 4 0 0 0 0
510	626363 54 1137 1139 0.435864919331 0.435992919331 2 0 1 1 1
511	626417 56 1137 1139 0.435864919331 0.435992919331 2 0 288 288 82944
512	626473 108 1139 1191 0.435992919331 0.436618919331 4 0 2 4 6
513	626581 34 1139 1139 0.435992919331 0.435992919331 1 0.000128 0.000128 0.000128 1.6384e-08
514	626615 29 1139 1139 0.435992919331 0.435992919331 1 288 288 288 82944
515	626644 64 1139 1139 0.1 0.4 4 0 0 0 0
516	626708 29 1307 1307 0.447926173685 0.447926173685 1 288 288 288 82944
517	626737 64 1307 1307 0.1 0.4 4 0 0 0 0
518	626801 54 1307 1309 0.447926173685 0.449014173685 2 0 1 1 1
519	626855 56 1307 1309 0.447926173685 0.449014173685 2 0 288 288 82944
520	626911 108 1309 1361 0.449014173685 0.449640173685 4 0 2 4 6
521	627019 34 1309 1309 0.449014173685 0.449014173685 1 0.001088 0.001088 0.001088 1.183744e-06
522	627053 29 1309 1309 0.449014173685 0.449014173685 1 288 288 288 82944
523	627082 64 1309 1309 0.1 0.4 4 0 0 0 0
524	627146 29 1470 1470 0.470132188406 0.470132188406 1 288 288 288 82944
525	627175 64 1470 1470 0.1 0.4 4 0 0 0 0
526	627239 54 1470 1472 0.470132188406 0.471860188406 2 0 1 1 1
527	627293 56 1470 1472 0.470132188406 0.471860188406 2 0 288 288 82944
528	627349 108 1472 1524 0.471860188406 0.472486188406 4 0 2 4 6
529	627457 34 1472 1472 0.471860188406 0.471860188406 1 0.001728 0.001728 0.001728 2.985984e-06
530	627491 29 1472 1472 0.471860188406 0.471860188406 1 288 288 288 82944
531	627520 64 1472 1472 0.1 0.4 4 0 0 0 0
532	627584 29 1628 1628 0.569964911556 0.569964911556 1 288 288 288 82944
533	627613 80 1628 1628 0.1 0.5 5 0 0 0 0
534	627693 54 1628 1630 0.569964911556 0.570732911556 2 0 1 1 1
535	627747 56 1628 1630 0.569964911556 0.570732911556 2 0 288 288 82944
536	627803 108 1630 1682 0.570732911556 0.571358911556 4 0 2 4 6
537	627911 34 1630 1630 0.570732911556 0.570732911556 1 0.000768 0.000768 0.000768 5.89824e-07
538	627945 29 1630 1630 0.570732911556 0.570732911556 1 288 288 288 82944
539	627974 80 1630 1630 0.1 0.5 5 0 0 0 0
540	628054 28 1782 1782 0.61801542691 0.61801542691 1 288 288 288 82944
541	628082 96 1782 1782 0.1 0.6 6 0 0 0 0
542	628178 52 1782 1784 0.61801542691 0.61974342691 2 0 1 1 1
543	628230 54 1782 1784 0.61801542691 0.61974342691 2 0 288 288 82944
544	628284 104 1784 1836 0.61974342691 0.62036942691 4 0 2 4 6
545	628388 33 1784 1784 0.61974342691 0.61974342691 1 0.001728 0.001728 0.001728 2.985984e-06
546	628421 28 1784 1784 0.61974342691 0.61974342691 1 288 288 288 82944
547	628449 96 1784 1784 0.1 0.6 6 0 0 0 0
548	628545 99 1958 1958 0.1 0.6 6 0 2880 2880 8294400
549	628644 99 1960 1960 0.1 0.6 6 0 2880 2880 8294400
550	628743 28 2086 2086 0.638246366444 0.638246366444 1 45 45 45 2025
551	628771 28 2088 2088 0.638246376527 0.638246376527 1 45 45 45 2025
552	628799 29 2130 2130 0.652103274362 0.652103274362 1 288 288 288 82944
553	628828 96 2130 2130 0.1 0.6 6 0 0 0 0
554	628924 54 2130 2132 0.652103274362 0.652231274362 2 0 1 1 1
555	628978 56 2130 2132 0.652103274362 0.652231274362 2 0 288 288 82944
556	629034 108 2132 2184 0.652231274362 0.652857274362 4 0 2 4 6
557	629142 34 2132 2132 0.652231274362 0.652231274362 1 0.000128 0.000128 0.000128 1.6384e-08
558	629176 29 2132 2132 0.652231274362 0.652231274362 1 288 288 288 82944
559	629205 96 2132 2132 0.1 0.6 6 0 0 0 0
560	629301 29 2287 2287 0.653200815432 0.653200815432 1 288 288 288 82944
561	629330 96 2287 2287 0.1 0.6 6 0 0 0 0
562	629426 54 2287 2289 0.653200815432 0.654288815432 2 0 1 1 1
563	629480 56 2287 2289 0.653200815432 0.654288815432 2 0 288 288 82944
564	629536 108 2289 2341 0.654288815432 0.654914815432 4 0 2 4 6
565	629644 34 2289 2289 0.654288815432 0.654288815432 1 0.001088 0.001088 0.001088 1.183744e-06
566	629678 29 2289 2289 0.654288815432 0.654288815432 1 288 288 288 82944
567	629707 96 2289 2289 0.1 0.6 6 0 0 0 0
568	629803 29 2438 2438 0.660173538374 0.660173538374 1 288 288 288 82944
569	629832 96 2438 2438 0.1 0.6 6 0 0 0 0
570	629928 54 2438 2440 0.660173538374 0.662221538374 2 0 1 1 1
571	629982 56 2438 2440 0.660173538374 0.662221538374 2 0 288 288 82944
572	630038 108 2440 2492 0.662221538374 0.662847538374 4 0 2 4 6
573	630146 34 2440 2440 0.662221538374 0.662221538374 1 0.002048 0.002048 0.002048 4.194304e-06
574	630180 29 2440 2440 0.662221538374 0.662221538374 1 288 288 288 82944
575	630209 96 2440 2440 0.1 0.6 6 0 0 0 0
576	630305 29 2606 2606 0.703888585558 0.703888585558 1 288 288 288 82944
577	630334 112 2606 2606 0.1 0.7 7 0 0 0 0
578	630446 27 2606 2606 0.703888585558 0.703888585558 1 1 1 1 1
579	630473 29 2606 2606 0.703888585558 0.703888585558 1 288 288 288 82944
