version 3
run General-0-20250225-16:50:43-6860
attr configname General
attr datetime 20250225-16:50:43
attr datetimef 20250225-165043
attr experiment General
attr inifile omnetpp.ini
attr iterationvars ""
attr iterationvarsd ""
attr iterationvarsf ""
attr measurement ""
attr network SimpleNet
attr processid 6860
attr repetition 0
attr replication #0
attr resultdir results
attr runnumber 0
attr seedset 0
config image-path ../../../inet4.5/images
config network SimpleNet
config sim-time-limit 100s
config *.numNodes 50
config **.arp.typename GlobalArp
config *.radioMedium.typename ApskScalarRadioMedium
config *.radioMedium.backgroundNoise.power -90dBm
config *.radioMedium.mediumLimitCache.centerFrequency 2GHz
config *.host*.hasStatus true
config *.visualizer.energyStorageVisualizer.displayEnergyStorages true
config *.configurator.config "xmldoc (\"address.xml\")"
config *.baseStation.typename LEACHbs
config *.host*.typename LEACHnode
config *.host*.LEACHnode.clusterHeadPercentage 0.5
config **.host*.energyStorage.nominalCapacity 600J
config *.host*.mobility.typename StationaryMobility
config *.host[*].mobility.initFromDisplayString false
config **.constraintAreaMinX 100m
config **.constraintAreaMaxX 480m
config **.constraintAreaMinY 100m
config **.constraintAreaMaxY 800m
config *.host*.energyStorage.typename SimpleEpEnergyStorage
config *.host[*].energyStorage.initialCapacity 50J
config *.host*.wlan[0].typename Ieee802154NarrowbandInterface
config *.host*.wlan[0].radio.typename ApskScalarRadio
config *.host*.wlan[0].radio.centerFrequency 2GHz
config *.host*.wlan[0].radio.bandwidth 2MHz
config *.host*.wlan[0].radio.transmitter.power 1.4mW
config *.host*.wlan[0].radio.transmitter.preambleDuration 10us
config *.host*.wlan[0].radio.transmitter.headerLength 8B
config *.host*.wlan[0].radio.receiver.sensitivity -85dBm
config *.host*.wlan[0].radio.receiver.energyDetection -85dBm
config *.host*.wlan[0].radio.receiver.snirThreshold 4dB
config *.host*.wlan[0].radio.displayCommunicationRange true
config *.baseStation.wlan[0].typename Ieee802154NarrowbandInterface
config *.baseStation.wlan[0].radio.typename ApskScalarRadio
config *.baseStation.wlan[0].radio.centerFrequency 2GHz
config *.baseStation.wlan[0].radio.bandwidth 2MHz
config *.baseStation.wlan[0].radio.transmitter.power 1.4mW
config *.baseStation.wlan[0].radio.transmitter.preambleDuration 10us
config *.baseStation.wlan[0].radio.transmitter.headerLength 8B
config *.baseStation.wlan[0].radio.receiver.sensitivity -85dBm
config *.baseStation.wlan[0].radio.receiver.energyDetection -85dBm
config *.baseStation.wlan[0].radio.receiver.snirThreshold 4dB
config *.baseStation.wlan[0].radio.displayCommunicationRange true
config *.host*.**.bitrate 1Mbps
config *.baseStation.**.bitrate 1Mbps
config *.host[*].energyManagement.typename SimpleEpEnergyManagement
config *.host[*].energyManagement.nodeShutdownCapacity 1J
config *.host*.wlan[0].radio.energyConsumer.typename StateBasedEpEnergyConsumer
config *.host*.wlan[0].radio.energyConsumer.offPowerConsumption 0mW
config *.host*.wlan[0].radio.energyConsumer.sleepPowerConsumption 1mW
config *.host*.wlan[0].radio.energyConsumer.switchingPowerConsumption 1mW
config *.host*.wlan[0].radio.energyConsumer.receiverIdlePowerConsumption 2mW
config *.host*.wlan[0].radio.energyConsumer.receiverBusyPowerConsumption 5mW
config *.host*.wlan[0].radio.energyConsumer.receiverReceivingPowerConsumption 10mW
config *.host*.wlan[0].radio.energyConsumer.transmitterIdlePowerConsumption 2mW
config *.host*.wlan[0].radio.energyConsumer.transmitterTransmittingPowerConsumption 100mW
config *.host*.wlan[0].radio.displayInterferenceRange true
config *.radioMedium.pathLoss.typename FreeSpacePathLoss
config *.host*.wlan[*].radio.bitErrorRate.result-recording-modes default,+vector

vector 0 SimpleNet.baseStation.udp passedUpPk:vector(count) ETV
attr interpolationmode none
attr recordingmode vector(count)
attr source packetSentToUpper
attr title "packets passed up, count"
vector 1 SimpleNet.baseStation.udp droppedPkWrongPort:vector(count) ETV
attr interpolationmode none
attr recordingmode vector(count)
attr source packetDropReasonIsNoPortFound(packetDropped)
attr title "packets dropped (wrong port), count"
vector 2 SimpleNet.baseStation.udp droppedPkBadChecksum:vector(count) ETV
attr interpolationmode none
attr recordingmode vector(count)
attr source packetDropReasonIsIncorrectlyReceived(packetDropped)
attr title "packets dropped (checksum error), count"
vector 3 SimpleNet.host[0].energyStorage residualEnergyCapacity:vector ETV
attr interpolationmode linear
attr recordingmode vector
attr source residualEnergyCapacityChanged
attr title "Residual energy capacity"
attr unit J
vector 4 SimpleNet.host[0].udp passedUpPk:vector(count) ETV
attr interpolationmode none
attr recordingmode vector(count)
attr source packetSentToUpper
attr title "packets passed up, count"
vector 5 SimpleNet.host[0].udp droppedPkWrongPort:vector(count) ETV
attr interpolationmode none
attr recordingmode vector(count)
attr source packetDropReasonIsNoPortFound(packetDropped)
attr title "packets dropped (wrong port), count"
vector 6 SimpleNet.host[0].udp droppedPkBadChecksum:vector(count) ETV
attr interpolationmode none
attr recordingmode vector(count)
attr source packetDropReasonIsIncorrectlyReceived(packetDropped)
attr title "packets dropped (checksum error), count"
vector 7 SimpleNet.host[1].energyStorage residualEnergyCapacity:vector ETV
attr interpolationmode linear
attr recordingmode vector
attr source residualEnergyCapacityChanged
attr title "Residual energy capacity"
attr unit J
vector 8 SimpleNet.host[1].udp passedUpPk:vector(count) ETV
attr interpolationmode none
attr recordingmode vector(count)
attr source packetSentToUpper
attr title "packets passed up, count"
vector 9 SimpleNet.host[1].udp droppedPkWrongPort:vector(count) ETV
attr interpolationmode none
attr recordingmode vector(count)
attr source packetDropReasonIsNoPortFound(packetDropped)
attr title "packets dropped (wrong port), count"
vector 10 SimpleNet.host[1].udp droppedPkBadChecksum:vector(count) ETV
attr interpolationmode none
attr recordingmode vector(count)
attr source packetDropReasonIsIncorrectlyReceived(packetDropped)
attr title "packets dropped (checksum error), count"
vector 11 SimpleNet.host[2].energyStorage residualEnergyCapacity:vector ETV
attr interpolationmode linear
attr recordingmode vector
attr source residualEnergyCapacityChanged
attr title "Residual energy capacity"
attr unit J
vector 12 SimpleNet.host[2].udp passedUpPk:vector(count) ETV
attr interpolationmode none
attr recordingmode vector(count)
attr source packetSentToUpper
attr title "packets passed up, count"
vector 13 SimpleNet.host[2].udp droppedPkWrongPort:vector(count) ETV
attr interpolationmode none
attr recordingmode vector(count)
attr source packetDropReasonIsNoPortFound(packetDropped)
attr title "packets dropped (wrong port), count"
vector 14 SimpleNet.host[2].udp droppedPkBadChecksum:vector(count) ETV
attr interpolationmode none
attr recordingmode vector(count)
attr source packetDropReasonIsIncorrectlyReceived(packetDropped)
attr title "packets dropped (checksum error), count"
vector 15 SimpleNet.host[3].energyStorage residualEnergyCapacity:vector ETV
attr interpolationmode linear
attr recordingmode vector
attr source residualEnergyCapacityChanged
attr title "Residual energy capacity"
attr unit J
vector 16 SimpleNet.host[3].udp passedUpPk:vector(count) ETV
attr interpolationmode none
attr recordingmode vector(count)
attr source packetSentToUpper
attr title "packets passed up, count"
vector 17 SimpleNet.host[3].udp droppedPkWrongPort:vector(count) ETV
attr interpolationmode none
attr recordingmode vector(count)
attr source packetDropReasonIsNoPortFound(packetDropped)
attr title "packets dropped (wrong port), count"
vector 18 SimpleNet.host[3].udp droppedPkBadChecksum:vector(count) ETV
attr interpolationmode none
attr recordingmode vector(count)
attr source packetDropReasonIsIncorrectlyReceived(packetDropped)
attr title "packets dropped (checksum error), count"
vector 19 SimpleNet.host[4].energyStorage residualEnergyCapacity:vector ETV
attr interpolationmode linear
attr recordingmode vector
attr source residualEnergyCapacityChanged
attr title "Residual energy capacity"
attr unit J
vector 20 SimpleNet.host[4].udp passedUpPk:vector(count) ETV
attr interpolationmode none
attr recordingmode vector(count)
attr source packetSentToUpper
attr title "packets passed up, count"
vector 21 SimpleNet.host[4].udp droppedPkWrongPort:vector(count) ETV
attr interpolationmode none
attr recordingmode vector(count)
attr source packetDropReasonIsNoPortFound(packetDropped)
attr title "packets dropped (wrong port), count"
vector 22 SimpleNet.host[4].udp droppedPkBadChecksum:vector(count) ETV
attr interpolationmode none
attr recordingmode vector(count)
attr source packetDropReasonIsIncorrectlyReceived(packetDropped)
attr title "packets dropped (checksum error), count"
vector 23 SimpleNet.host[5].energyStorage residualEnergyCapacity:vector ETV
attr interpolationmode linear
attr recordingmode vector
attr source residualEnergyCapacityChanged
attr title "Residual energy capacity"
attr unit J
vector 24 SimpleNet.host[5].udp passedUpPk:vector(count) ETV
attr interpolationmode none
attr recordingmode vector(count)
attr source packetSentToUpper
attr title "packets passed up, count"
vector 25 SimpleNet.host[5].udp droppedPkWrongPort:vector(count) ETV
attr interpolationmode none
attr recordingmode vector(count)
attr source packetDropReasonIsNoPortFound(packetDropped)
attr title "packets dropped (wrong port), count"
vector 26 SimpleNet.host[5].udp droppedPkBadChecksum:vector(count) ETV
attr interpolationmode none
attr recordingmode vector(count)
attr source packetDropReasonIsIncorrectlyReceived(packetDropped)
attr title "packets dropped (checksum error), count"
vector 27 SimpleNet.host[6].energyStorage residualEnergyCapacity:vector ETV
attr interpolationmode linear
attr recordingmode vector
attr source residualEnergyCapacityChanged
attr title "Residual energy capacity"
attr unit J
vector 28 SimpleNet.host[6].udp passedUpPk:vector(count) ETV
attr interpolationmode none
attr recordingmode vector(count)
attr source packetSentToUpper
attr title "packets passed up, count"
vector 29 SimpleNet.host[6].udp droppedPkWrongPort:vector(count) ETV
attr interpolationmode none
attr recordingmode vector(count)
attr source packetDropReasonIsNoPortFound(packetDropped)
attr title "packets dropped (wrong port), count"
vector 30 SimpleNet.host[6].udp droppedPkBadChecksum:vector(count) ETV
attr interpolationmode none
attr recordingmode vector(count)
attr source packetDropReasonIsIncorrectlyReceived(packetDropped)
attr title "packets dropped (checksum error), count"
vector 31 SimpleNet.host[7].energyStorage residualEnergyCapacity:vector ETV
attr interpolationmode linear
attr recordingmode vector
attr source residualEnergyCapacityChanged
attr title "Residual energy capacity"
attr unit J
vector 32 SimpleNet.host[7].udp passedUpPk:vector(count) ETV
attr interpolationmode none
attr recordingmode vector(count)
attr source packetSentToUpper
attr title "packets passed up, count"
vector 33 SimpleNet.host[7].udp droppedPkWrongPort:vector(count) ETV
attr interpolationmode none
attr recordingmode vector(count)
attr source packetDropReasonIsNoPortFound(packetDropped)
attr title "packets dropped (wrong port), count"
vector 34 SimpleNet.host[7].udp droppedPkBadChecksum:vector(count) ETV
attr interpolationmode none
attr recordingmode vector(count)
attr source packetDropReasonIsIncorrectlyReceived(packetDropped)
attr title "packets dropped (checksum error), count"
vector 35 SimpleNet.host[8].energyStorage residualEnergyCapacity:vector ETV
attr interpolationmode linear
attr recordingmode vector
attr source residualEnergyCapacityChanged
attr title "Residual energy capacity"
attr unit J
vector 36 SimpleNet.host[8].udp passedUpPk:vector(count) ETV
attr interpolationmode none
attr recordingmode vector(count)
attr source packetSentToUpper
attr title "packets passed up, count"
vector 37 SimpleNet.host[8].udp droppedPkWrongPort:vector(count) ETV
attr interpolationmode none
attr recordingmode vector(count)
attr source packetDropReasonIsNoPortFound(packetDropped)
attr title "packets dropped (wrong port), count"
vector 38 SimpleNet.host[8].udp droppedPkBadChecksum:vector(count) ETV
attr interpolationmode none
attr recordingmode vector(count)
attr source packetDropReasonIsIncorrectlyReceived(packetDropped)
attr title "packets dropped (checksum error), count"
vector 39 SimpleNet.host[9].energyStorage residualEnergyCapacity:vector ETV
attr interpolationmode linear
attr recordingmode vector
attr source residualEnergyCapacityChanged
attr title "Residual energy capacity"
attr unit J
vector 40 SimpleNet.host[9].udp passedUpPk:vector(count) ETV
attr interpolationmode none
attr recordingmode vector(count)
attr source packetSentToUpper
attr title "packets passed up, count"
vector 41 SimpleNet.host[9].udp droppedPkWrongPort:vector(count) ETV
attr interpolationmode none
attr recordingmode vector(count)
attr source packetDropReasonIsNoPortFound(packetDropped)
attr title "packets dropped (wrong port), count"
vector 42 SimpleNet.host[9].udp droppedPkBadChecksum:vector(count) ETV
attr interpolationmode none
attr recordingmode vector(count)
attr source packetDropReasonIsIncorrectlyReceived(packetDropped)
attr title "packets dropped (checksum error), count"
vector 43 SimpleNet.host[10].energyStorage residualEnergyCapacity:vector ETV
attr interpolationmode linear
attr recordingmode vector
attr source residualEnergyCapacityChanged
attr title "Residual energy capacity"
attr unit J
vector 44 SimpleNet.host[10].udp passedUpPk:vector(count) ETV
attr interpolationmode none
attr recordingmode vector(count)
attr source packetSentToUpper
attr title "packets passed up, count"
vector 45 SimpleNet.host[10].udp droppedPkWrongPort:vector(count) ETV
attr interpolationmode none
attr recordingmode vector(count)
attr source packetDropReasonIsNoPortFound(packetDropped)
attr title "packets dropped (wrong port), count"
vector 46 SimpleNet.host[10].udp droppedPkBadChecksum:vector(count) ETV
attr interpolationmode none
attr recordingmode vector(count)
attr source packetDropReasonIsIncorrectlyReceived(packetDropped)
attr title "packets dropped (checksum error), count"
vector 47 SimpleNet.host[11].energyStorage residualEnergyCapacity:vector ETV
attr interpolationmode linear
attr recordingmode vector
attr source residualEnergyCapacityChanged
attr title "Residual energy capacity"
attr unit J
vector 48 SimpleNet.host[11].udp passedUpPk:vector(count) ETV
attr interpolationmode none
attr recordingmode vector(count)
attr source packetSentToUpper
attr title "packets passed up, count"
vector 49 SimpleNet.host[11].udp droppedPkWrongPort:vector(count) ETV
attr interpolationmode none
attr recordingmode vector(count)
attr source packetDropReasonIsNoPortFound(packetDropped)
attr title "packets dropped (wrong port), count"
vector 50 SimpleNet.host[11].udp droppedPkBadChecksum:vector(count) ETV
attr interpolationmode none
attr recordingmode vector(count)
attr source packetDropReasonIsIncorrectlyReceived(packetDropped)
attr title "packets dropped (checksum error), count"
vector 51 SimpleNet.host[12].energyStorage residualEnergyCapacity:vector ETV
attr interpolationmode linear
attr recordingmode vector
attr source residualEnergyCapacityChanged
attr title "Residual energy capacity"
attr unit J
vector 52 SimpleNet.host[12].udp passedUpPk:vector(count) ETV
attr interpolationmode none
attr recordingmode vector(count)
attr source packetSentToUpper
attr title "packets passed up, count"
vector 53 SimpleNet.host[12].udp droppedPkWrongPort:vector(count) ETV
attr interpolationmode none
attr recordingmode vector(count)
attr source packetDropReasonIsNoPortFound(packetDropped)
attr title "packets dropped (wrong port), count"
vector 54 SimpleNet.host[12].udp droppedPkBadChecksum:vector(count) ETV
attr interpolationmode none
attr recordingmode vector(count)
attr source packetDropReasonIsIncorrectlyReceived(packetDropped)
attr title "packets dropped (checksum error), count"
vector 55 SimpleNet.host[13].energyStorage residualEnergyCapacity:vector ETV
attr interpolationmode linear
attr recordingmode vector
attr source residualEnergyCapacityChanged
attr title "Residual energy capacity"
attr unit J
vector 56 SimpleNet.host[13].udp passedUpPk:vector(count) ETV
attr interpolationmode none
attr recordingmode vector(count)
attr source packetSentToUpper
attr title "packets passed up, count"
vector 57 SimpleNet.host[13].udp droppedPkWrongPort:vector(count) ETV
attr interpolationmode none
attr recordingmode vector(count)
attr source packetDropReasonIsNoPortFound(packetDropped)
attr title "packets dropped (wrong port), count"
vector 58 SimpleNet.host[13].udp droppedPkBadChecksum:vector(count) ETV
attr interpolationmode none
attr recordingmode vector(count)
attr source packetDropReasonIsIncorrectlyReceived(packetDropped)
attr title "packets dropped (checksum error), count"
vector 59 SimpleNet.host[14].energyStorage residualEnergyCapacity:vector ETV
attr interpolationmode linear
attr recordingmode vector
attr source residualEnergyCapacityChanged
attr title "Residual energy capacity"
attr unit J
vector 60 SimpleNet.host[14].udp passedUpPk:vector(count) ETV
attr interpolationmode none
attr recordingmode vector(count)
attr source packetSentToUpper
attr title "packets passed up, count"
vector 61 SimpleNet.host[14].udp droppedPkWrongPort:vector(count) ETV
attr interpolationmode none
attr recordingmode vector(count)
attr source packetDropReasonIsNoPortFound(packetDropped)
attr title "packets dropped (wrong port), count"
vector 62 SimpleNet.host[14].udp droppedPkBadChecksum:vector(count) ETV
attr interpolationmode none
attr recordingmode vector(count)
attr source packetDropReasonIsIncorrectlyReceived(packetDropped)
attr title "packets dropped (checksum error), count"
vector 63 SimpleNet.host[15].energyStorage residualEnergyCapacity:vector ETV
attr interpolationmode linear
attr recordingmode vector
attr source residualEnergyCapacityChanged
attr title "Residual energy capacity"
attr unit J
vector 64 SimpleNet.host[15].udp passedUpPk:vector(count) ETV
attr interpolationmode none
attr recordingmode vector(count)
attr source packetSentToUpper
attr title "packets passed up, count"
vector 65 SimpleNet.host[15].udp droppedPkWrongPort:vector(count) ETV
attr interpolationmode none
attr recordingmode vector(count)
attr source packetDropReasonIsNoPortFound(packetDropped)
attr title "packets dropped (wrong port), count"
vector 66 SimpleNet.host[15].udp droppedPkBadChecksum:vector(count) ETV
attr interpolationmode none
attr recordingmode vector(count)
attr source packetDropReasonIsIncorrectlyReceived(packetDropped)
attr title "packets dropped (checksum error), count"
vector 67 SimpleNet.host[16].energyStorage residualEnergyCapacity:vector ETV
attr interpolationmode linear
attr recordingmode vector
attr source residualEnergyCapacityChanged
attr title "Residual energy capacity"
attr unit J
vector 68 SimpleNet.host[16].udp passedUpPk:vector(count) ETV
attr interpolationmode none
attr recordingmode vector(count)
attr source packetSentToUpper
attr title "packets passed up, count"
vector 69 SimpleNet.host[16].udp droppedPkWrongPort:vector(count) ETV
attr interpolationmode none
attr recordingmode vector(count)
attr source packetDropReasonIsNoPortFound(packetDropped)
attr title "packets dropped (wrong port), count"
vector 70 SimpleNet.host[16].udp droppedPkBadChecksum:vector(count) ETV
attr interpolationmode none
attr recordingmode vector(count)
attr source packetDropReasonIsIncorrectlyReceived(packetDropped)
attr title "packets dropped (checksum error), count"
vector 71 SimpleNet.host[17].energyStorage residualEnergyCapacity:vector ETV
attr interpolationmode linear
attr recordingmode vector
attr source residualEnergyCapacityChanged
attr title "Residual energy capacity"
attr unit J
vector 72 SimpleNet.host[17].udp passedUpPk:vector(count) ETV
attr interpolationmode none
attr recordingmode vector(count)
attr source packetSentToUpper
attr title "packets passed up, count"
vector 73 SimpleNet.host[17].udp droppedPkWrongPort:vector(count) ETV
attr interpolationmode none
attr recordingmode vector(count)
attr source packetDropReasonIsNoPortFound(packetDropped)
attr title "packets dropped (wrong port), count"
vector 74 SimpleNet.host[17].udp droppedPkBadChecksum:vector(count) ETV
attr interpolationmode none
attr recordingmode vector(count)
attr source packetDropReasonIsIncorrectlyReceived(packetDropped)
attr title "packets dropped (checksum error), count"
vector 75 SimpleNet.host[18].energyStorage residualEnergyCapacity:vector ETV
attr interpolationmode linear
attr recordingmode vector
attr source residualEnergyCapacityChanged
attr title "Residual energy capacity"
attr unit J
vector 76 SimpleNet.host[18].udp passedUpPk:vector(count) ETV
attr interpolationmode none
attr recordingmode vector(count)
attr source packetSentToUpper
attr title "packets passed up, count"
vector 77 SimpleNet.host[18].udp droppedPkWrongPort:vector(count) ETV
attr interpolationmode none
attr recordingmode vector(count)
attr source packetDropReasonIsNoPortFound(packetDropped)
attr title "packets dropped (wrong port), count"
vector 78 SimpleNet.host[18].udp droppedPkBadChecksum:vector(count) ETV
attr interpolationmode none
attr recordingmode vector(count)
attr source packetDropReasonIsIncorrectlyReceived(packetDropped)
attr title "packets dropped (checksum error), count"
vector 79 SimpleNet.host[19].energyStorage residualEnergyCapacity:vector ETV
attr interpolationmode linear
attr recordingmode vector
attr source residualEnergyCapacityChanged
attr title "Residual energy capacity"
attr unit J
vector 80 SimpleNet.host[19].udp passedUpPk:vector(count) ETV
attr interpolationmode none
attr recordingmode vector(count)
attr source packetSentToUpper
attr title "packets passed up, count"
vector 81 SimpleNet.host[19].udp droppedPkWrongPort:vector(count) ETV
attr interpolationmode none
attr recordingmode vector(count)
attr source packetDropReasonIsNoPortFound(packetDropped)
attr title "packets dropped (wrong port), count"
vector 82 SimpleNet.host[19].udp droppedPkBadChecksum:vector(count) ETV
attr interpolationmode none
attr recordingmode vector(count)
attr source packetDropReasonIsIncorrectlyReceived(packetDropped)
attr title "packets dropped (checksum error), count"
vector 83 SimpleNet.host[20].energyStorage residualEnergyCapacity:vector ETV
attr interpolationmode linear
attr recordingmode vector
attr source residualEnergyCapacityChanged
attr title "Residual energy capacity"
attr unit J
vector 84 SimpleNet.host[20].udp passedUpPk:vector(count) ETV
attr interpolationmode none
attr recordingmode vector(count)
attr source packetSentToUpper
attr title "packets passed up, count"
vector 85 SimpleNet.host[20].udp droppedPkWrongPort:vector(count) ETV
attr interpolationmode none
attr recordingmode vector(count)
attr source packetDropReasonIsNoPortFound(packetDropped)
attr title "packets dropped (wrong port), count"
vector 86 SimpleNet.host[20].udp droppedPkBadChecksum:vector(count) ETV
attr interpolationmode none
attr recordingmode vector(count)
attr source packetDropReasonIsIncorrectlyReceived(packetDropped)
attr title "packets dropped (checksum error), count"
vector 87 SimpleNet.host[21].energyStorage residualEnergyCapacity:vector ETV
attr interpolationmode linear
attr recordingmode vector
attr source residualEnergyCapacityChanged
attr title "Residual energy capacity"
attr unit J
vector 88 SimpleNet.host[21].udp passedUpPk:vector(count) ETV
attr interpolationmode none
attr recordingmode vector(count)
attr source packetSentToUpper
attr title "packets passed up, count"
vector 89 SimpleNet.host[21].udp droppedPkWrongPort:vector(count) ETV
attr interpolationmode none
attr recordingmode vector(count)
attr source packetDropReasonIsNoPortFound(packetDropped)
attr title "packets dropped (wrong port), count"
vector 90 SimpleNet.host[21].udp droppedPkBadChecksum:vector(count) ETV
attr interpolationmode none
attr recordingmode vector(count)
attr source packetDropReasonIsIncorrectlyReceived(packetDropped)
attr title "packets dropped (checksum error), count"
vector 91 SimpleNet.host[22].energyStorage residualEnergyCapacity:vector ETV
attr interpolationmode linear
attr recordingmode vector
attr source residualEnergyCapacityChanged
attr title "Residual energy capacity"
attr unit J
vector 92 SimpleNet.host[22].udp passedUpPk:vector(count) ETV
attr interpolationmode none
attr recordingmode vector(count)
attr source packetSentToUpper
attr title "packets passed up, count"
vector 93 SimpleNet.host[22].udp droppedPkWrongPort:vector(count) ETV
attr interpolationmode none
attr recordingmode vector(count)
attr source packetDropReasonIsNoPortFound(packetDropped)
attr title "packets dropped (wrong port), count"
vector 94 SimpleNet.host[22].udp droppedPkBadChecksum:vector(count) ETV
attr interpolationmode none
attr recordingmode vector(count)
attr source packetDropReasonIsIncorrectlyReceived(packetDropped)
attr title "packets dropped (checksum error), count"
vector 95 SimpleNet.host[23].energyStorage residualEnergyCapacity:vector ETV
attr interpolationmode linear
attr recordingmode vector
attr source residualEnergyCapacityChanged
attr title "Residual energy capacity"
attr unit J
vector 96 SimpleNet.host[23].udp passedUpPk:vector(count) ETV
attr interpolationmode none
attr recordingmode vector(count)
attr source packetSentToUpper
attr title "packets passed up, count"
vector 97 SimpleNet.host[23].udp droppedPkWrongPort:vector(count) ETV
attr interpolationmode none
attr recordingmode vector(count)
attr source packetDropReasonIsNoPortFound(packetDropped)
attr title "packets dropped (wrong port), count"
vector 98 SimpleNet.host[23].udp droppedPkBadChecksum:vector(count) ETV
attr interpolationmode none
attr recordingmode vector(count)
attr source packetDropReasonIsIncorrectlyReceived(packetDropped)
attr title "packets dropped (checksum error), count"
vector 99 SimpleNet.host[24].energyStorage residualEnergyCapacity:vector ETV
attr interpolationmode linear
attr recordingmode vector
attr source residualEnergyCapacityChanged
attr title "Residual energy capacity"
attr unit J
vector 100 SimpleNet.host[24].udp passedUpPk:vector(count) ETV
attr interpolationmode none
attr recordingmode vector(count)
attr source packetSentToUpper
attr title "packets passed up, count"
vector 101 SimpleNet.host[24].udp droppedPkWrongPort:vector(count) ETV
attr interpolationmode none
attr recordingmode vector(count)
attr source packetDropReasonIsNoPortFound(packetDropped)
attr title "packets dropped (wrong port), count"
vector 102 SimpleNet.host[24].udp droppedPkBadChecksum:vector(count) ETV
attr interpolationmode none
attr recordingmode vector(count)
attr source packetDropReasonIsIncorrectlyReceived(packetDropped)
attr title "packets dropped (checksum error), count"
vector 103 SimpleNet.host[25].energyStorage residualEnergyCapacity:vector ETV
attr interpolationmode linear
attr recordingmode vector
attr source residualEnergyCapacityChanged
attr title "Residual energy capacity"
attr unit J
vector 104 SimpleNet.host[25].udp passedUpPk:vector(count) ETV
attr interpolationmode none
attr recordingmode vector(count)
attr source packetSentToUpper
attr title "packets passed up, count"
vector 105 SimpleNet.host[25].udp droppedPkWrongPort:vector(count) ETV
attr interpolationmode none
attr recordingmode vector(count)
attr source packetDropReasonIsNoPortFound(packetDropped)
attr title "packets dropped (wrong port), count"
vector 106 SimpleNet.host[25].udp droppedPkBadChecksum:vector(count) ETV
attr interpolationmode none
attr recordingmode vector(count)
attr source packetDropReasonIsIncorrectlyReceived(packetDropped)
attr title "packets dropped (checksum error), count"
vector 107 SimpleNet.host[26].energyStorage residualEnergyCapacity:vector ETV
attr interpolationmode linear
attr recordingmode vector
attr source residualEnergyCapacityChanged
attr title "Residual energy capacity"
attr unit J
vector 108 SimpleNet.host[26].udp passedUpPk:vector(count) ETV
attr interpolationmode none
attr recordingmode vector(count)
attr source packetSentToUpper
attr title "packets passed up, count"
vector 109 SimpleNet.host[26].udp droppedPkWrongPort:vector(count) ETV
attr interpolationmode none
attr recordingmode vector(count)
attr source packetDropReasonIsNoPortFound(packetDropped)
attr title "packets dropped (wrong port), count"
vector 110 SimpleNet.host[26].udp droppedPkBadChecksum:vector(count) ETV
attr interpolationmode none
attr recordingmode vector(count)
attr source packetDropReasonIsIncorrectlyReceived(packetDropped)
attr title "packets dropped (checksum error), count"
vector 111 SimpleNet.host[27].energyStorage residualEnergyCapacity:vector ETV
attr interpolationmode linear
attr recordingmode vector
attr source residualEnergyCapacityChanged
attr title "Residual energy capacity"
attr unit J
vector 112 SimpleNet.host[27].udp passedUpPk:vector(count) ETV
attr interpolationmode none
attr recordingmode vector(count)
attr source packetSentToUpper
attr title "packets passed up, count"
vector 113 SimpleNet.host[27].udp droppedPkWrongPort:vector(count) ETV
attr interpolationmode none
attr recordingmode vector(count)
attr source packetDropReasonIsNoPortFound(packetDropped)
attr title "packets dropped (wrong port), count"
vector 114 SimpleNet.host[27].udp droppedPkBadChecksum:vector(count) ETV
attr interpolationmode none
attr recordingmode vector(count)
attr source packetDropReasonIsIncorrectlyReceived(packetDropped)
attr title "packets dropped (checksum error), count"
vector 115 SimpleNet.host[28].energyStorage residualEnergyCapacity:vector ETV
attr interpolationmode linear
attr recordingmode vector
attr source residualEnergyCapacityChanged
attr title "Residual energy capacity"
attr unit J
vector 116 SimpleNet.host[28].udp passedUpPk:vector(count) ETV
attr interpolationmode none
attr recordingmode vector(count)
attr source packetSentToUpper
attr title "packets passed up, count"
vector 117 SimpleNet.host[28].udp droppedPkWrongPort:vector(count) ETV
attr interpolationmode none
attr recordingmode vector(count)
attr source packetDropReasonIsNoPortFound(packetDropped)
attr title "packets dropped (wrong port), count"
vector 118 SimpleNet.host[28].udp droppedPkBadChecksum:vector(count) ETV
attr interpolationmode none
attr recordingmode vector(count)
attr source packetDropReasonIsIncorrectlyReceived(packetDropped)
attr title "packets dropped (checksum error), count"
vector 119 SimpleNet.host[29].energyStorage residualEnergyCapacity:vector ETV
attr interpolationmode linear
attr recordingmode vector
attr source residualEnergyCapacityChanged
attr title "Residual energy capacity"
attr unit J
vector 120 SimpleNet.host[29].udp passedUpPk:vector(count) ETV
attr interpolationmode none
attr recordingmode vector(count)
attr source packetSentToUpper
attr title "packets passed up, count"
vector 121 SimpleNet.host[29].udp droppedPkWrongPort:vector(count) ETV
attr interpolationmode none
attr recordingmode vector(count)
attr source packetDropReasonIsNoPortFound(packetDropped)
attr title "packets dropped (wrong port), count"
vector 122 SimpleNet.host[29].udp droppedPkBadChecksum:vector(count) ETV
attr interpolationmode none
attr recordingmode vector(count)
attr source packetDropReasonIsIncorrectlyReceived(packetDropped)
attr title "packets dropped (checksum error), count"
vector 123 SimpleNet.host[30].energyStorage residualEnergyCapacity:vector ETV
attr interpolationmode linear
attr recordingmode vector
attr source residualEnergyCapacityChanged
attr title "Residual energy capacity"
attr unit J
vector 124 SimpleNet.host[30].udp passedUpPk:vector(count) ETV
attr interpolationmode none
attr recordingmode vector(count)
attr source packetSentToUpper
attr title "packets passed up, count"
vector 125 SimpleNet.host[30].udp droppedPkWrongPort:vector(count) ETV
attr interpolationmode none
attr recordingmode vector(count)
attr source packetDropReasonIsNoPortFound(packetDropped)
attr title "packets dropped (wrong port), count"
vector 126 SimpleNet.host[30].udp droppedPkBadChecksum:vector(count) ETV
attr interpolationmode none
attr recordingmode vector(count)
attr source packetDropReasonIsIncorrectlyReceived(packetDropped)
attr title "packets dropped (checksum error), count"
vector 127 SimpleNet.host[31].energyStorage residualEnergyCapacity:vector ETV
attr interpolationmode linear
attr recordingmode vector
attr source residualEnergyCapacityChanged
attr title "Residual energy capacity"
attr unit J
vector 128 SimpleNet.host[31].udp passedUpPk:vector(count) ETV
attr interpolationmode none
attr recordingmode vector(count)
attr source packetSentToUpper
attr title "packets passed up, count"
vector 129 SimpleNet.host[31].udp droppedPkWrongPort:vector(count) ETV
attr interpolationmode none
attr recordingmode vector(count)
attr source packetDropReasonIsNoPortFound(packetDropped)
attr title "packets dropped (wrong port), count"
vector 130 SimpleNet.host[31].udp droppedPkBadChecksum:vector(count) ETV
attr interpolationmode none
attr recordingmode vector(count)
attr source packetDropReasonIsIncorrectlyReceived(packetDropped)
attr title "packets dropped (checksum error), count"
vector 131 SimpleNet.host[32].energyStorage residualEnergyCapacity:vector ETV
attr interpolationmode linear
attr recordingmode vector
attr source residualEnergyCapacityChanged
attr title "Residual energy capacity"
attr unit J
vector 132 SimpleNet.host[32].udp passedUpPk:vector(count) ETV
attr interpolationmode none
attr recordingmode vector(count)
attr source packetSentToUpper
attr title "packets passed up, count"
vector 133 SimpleNet.host[32].udp droppedPkWrongPort:vector(count) ETV
attr interpolationmode none
attr recordingmode vector(count)
attr source packetDropReasonIsNoPortFound(packetDropped)
attr title "packets dropped (wrong port), count"
vector 134 SimpleNet.host[32].udp droppedPkBadChecksum:vector(count) ETV
attr interpolationmode none
attr recordingmode vector(count)
attr source packetDropReasonIsIncorrectlyReceived(packetDropped)
attr title "packets dropped (checksum error), count"
vector 135 SimpleNet.host[33].energyStorage residualEnergyCapacity:vector ETV
attr interpolationmode linear
attr recordingmode vector
attr source residualEnergyCapacityChanged
attr title "Residual energy capacity"
attr unit J
vector 136 SimpleNet.host[33].udp passedUpPk:vector(count) ETV
attr interpolationmode none
attr recordingmode vector(count)
attr source packetSentToUpper
attr title "packets passed up, count"
vector 137 SimpleNet.host[33].udp droppedPkWrongPort:vector(count) ETV
attr interpolationmode none
attr recordingmode vector(count)
attr source packetDropReasonIsNoPortFound(packetDropped)
attr title "packets dropped (wrong port), count"
vector 138 SimpleNet.host[33].udp droppedPkBadChecksum:vector(count) ETV
attr interpolationmode none
attr recordingmode vector(count)
attr source packetDropReasonIsIncorrectlyReceived(packetDropped)
attr title "packets dropped (checksum error), count"
vector 139 SimpleNet.host[34].energyStorage residualEnergyCapacity:vector ETV
attr interpolationmode linear
attr recordingmode vector
attr source residualEnergyCapacityChanged
attr title "Residual energy capacity"
attr unit J
vector 140 SimpleNet.host[34].udp passedUpPk:vector(count) ETV
attr interpolationmode none
attr recordingmode vector(count)
attr source packetSentToUpper
attr title "packets passed up, count"
vector 141 SimpleNet.host[34].udp droppedPkWrongPort:vector(count) ETV
attr interpolationmode none
attr recordingmode vector(count)
attr source packetDropReasonIsNoPortFound(packetDropped)
attr title "packets dropped (wrong port), count"
vector 142 SimpleNet.host[34].udp droppedPkBadChecksum:vector(count) ETV
attr interpolationmode none
attr recordingmode vector(count)
attr source packetDropReasonIsIncorrectlyReceived(packetDropped)
attr title "packets dropped (checksum error), count"
vector 143 SimpleNet.host[35].energyStorage residualEnergyCapacity:vector ETV
attr interpolationmode linear
attr recordingmode vector
attr source residualEnergyCapacityChanged
attr title "Residual energy capacity"
attr unit J
vector 144 SimpleNet.host[35].udp passedUpPk:vector(count) ETV
attr interpolationmode none
attr recordingmode vector(count)
attr source packetSentToUpper
attr title "packets passed up, count"
vector 145 SimpleNet.host[35].udp droppedPkWrongPort:vector(count) ETV
attr interpolationmode none
attr recordingmode vector(count)
attr source packetDropReasonIsNoPortFound(packetDropped)
attr title "packets dropped (wrong port), count"
vector 146 SimpleNet.host[35].udp droppedPkBadChecksum:vector(count) ETV
attr interpolationmode none
attr recordingmode vector(count)
attr source packetDropReasonIsIncorrectlyReceived(packetDropped)
attr title "packets dropped (checksum error), count"
vector 147 SimpleNet.host[36].energyStorage residualEnergyCapacity:vector ETV
attr interpolationmode linear
attr recordingmode vector
attr source residualEnergyCapacityChanged
attr title "Residual energy capacity"
attr unit J
vector 148 SimpleNet.host[36].udp passedUpPk:vector(count) ETV
attr interpolationmode none
attr recordingmode vector(count)
attr source packetSentToUpper
attr title "packets passed up, count"
vector 149 SimpleNet.host[36].udp droppedPkWrongPort:vector(count) ETV
attr interpolationmode none
attr recordingmode vector(count)
attr source packetDropReasonIsNoPortFound(packetDropped)
attr title "packets dropped (wrong port), count"
vector 150 SimpleNet.host[36].udp droppedPkBadChecksum:vector(count) ETV
attr interpolationmode none
attr recordingmode vector(count)
attr source packetDropReasonIsIncorrectlyReceived(packetDropped)
attr title "packets dropped (checksum error), count"
vector 151 SimpleNet.host[37].energyStorage residualEnergyCapacity:vector ETV
attr interpolationmode linear
attr recordingmode vector
attr source residualEnergyCapacityChanged
attr title "Residual energy capacity"
attr unit J
vector 152 SimpleNet.host[37].udp passedUpPk:vector(count) ETV
attr interpolationmode none
attr recordingmode vector(count)
attr source packetSentToUpper
attr title "packets passed up, count"
vector 153 SimpleNet.host[37].udp droppedPkWrongPort:vector(count) ETV
attr interpolationmode none
attr recordingmode vector(count)
attr source packetDropReasonIsNoPortFound(packetDropped)
attr title "packets dropped (wrong port), count"
vector 154 SimpleNet.host[37].udp droppedPkBadChecksum:vector(count) ETV
attr interpolationmode none
attr recordingmode vector(count)
attr source packetDropReasonIsIncorrectlyReceived(packetDropped)
attr title "packets dropped (checksum error), count"
vector 155 SimpleNet.host[38].energyStorage residualEnergyCapacity:vector ETV
attr interpolationmode linear
attr recordingmode vector
attr source residualEnergyCapacityChanged
attr title "Residual energy capacity"
attr unit J
vector 156 SimpleNet.host[38].udp passedUpPk:vector(count) ETV
attr interpolationmode none
attr recordingmode vector(count)
attr source packetSentToUpper
attr title "packets passed up, count"
vector 157 SimpleNet.host[38].udp droppedPkWrongPort:vector(count) ETV
attr interpolationmode none
attr recordingmode vector(count)
attr source packetDropReasonIsNoPortFound(packetDropped)
attr title "packets dropped (wrong port), count"
vector 158 SimpleNet.host[38].udp droppedPkBadChecksum:vector(count) ETV
attr interpolationmode none
attr recordingmode vector(count)
attr source packetDropReasonIsIncorrectlyReceived(packetDropped)
attr title "packets dropped (checksum error), count"
vector 159 SimpleNet.host[39].energyStorage residualEnergyCapacity:vector ETV
attr interpolationmode linear
attr recordingmode vector
attr source residualEnergyCapacityChanged
attr title "Residual energy capacity"
attr unit J
vector 160 SimpleNet.host[39].udp passedUpPk:vector(count) ETV
attr interpolationmode none
attr recordingmode vector(count)
attr source packetSentToUpper
attr title "packets passed up, count"
vector 161 SimpleNet.host[39].udp droppedPkWrongPort:vector(count) ETV
attr interpolationmode none
attr recordingmode vector(count)
attr source packetDropReasonIsNoPortFound(packetDropped)
attr title "packets dropped (wrong port), count"
vector 162 SimpleNet.host[39].udp droppedPkBadChecksum:vector(count) ETV
attr interpolationmode none
attr recordingmode vector(count)
attr source packetDropReasonIsIncorrectlyReceived(packetDropped)
attr title "packets dropped (checksum error), count"
vector 163 SimpleNet.host[40].energyStorage residualEnergyCapacity:vector ETV
attr interpolationmode linear
attr recordingmode vector
attr source residualEnergyCapacityChanged
attr title "Residual energy capacity"
attr unit J
vector 164 SimpleNet.host[40].udp passedUpPk:vector(count) ETV
attr interpolationmode none
attr recordingmode vector(count)
attr source packetSentToUpper
attr title "packets passed up, count"
vector 165 SimpleNet.host[40].udp droppedPkWrongPort:vector(count) ETV
attr interpolationmode none
attr recordingmode vector(count)
attr source packetDropReasonIsNoPortFound(packetDropped)
attr title "packets dropped (wrong port), count"
vector 166 SimpleNet.host[40].udp droppedPkBadChecksum:vector(count) ETV
attr interpolationmode none
attr recordingmode vector(count)
attr source packetDropReasonIsIncorrectlyReceived(packetDropped)
attr title "packets dropped (checksum error), count"
vector 167 SimpleNet.host[41].energyStorage residualEnergyCapacity:vector ETV
attr interpolationmode linear
attr recordingmode vector
attr source residualEnergyCapacityChanged
attr title "Residual energy capacity"
attr unit J
vector 168 SimpleNet.host[41].udp passedUpPk:vector(count) ETV
attr interpolationmode none
attr recordingmode vector(count)
attr source packetSentToUpper
attr title "packets passed up, count"
vector 169 SimpleNet.host[41].udp droppedPkWrongPort:vector(count) ETV
attr interpolationmode none
attr recordingmode vector(count)
attr source packetDropReasonIsNoPortFound(packetDropped)
attr title "packets dropped (wrong port), count"
vector 170 SimpleNet.host[41].udp droppedPkBadChecksum:vector(count) ETV
attr interpolationmode none
attr recordingmode vector(count)
attr source packetDropReasonIsIncorrectlyReceived(packetDropped)
attr title "packets dropped (checksum error), count"
vector 171 SimpleNet.host[42].energyStorage residualEnergyCapacity:vector ETV
attr interpolationmode linear
attr recordingmode vector
attr source residualEnergyCapacityChanged
attr title "Residual energy capacity"
attr unit J
vector 172 SimpleNet.host[42].udp passedUpPk:vector(count) ETV
attr interpolationmode none
attr recordingmode vector(count)
attr source packetSentToUpper
attr title "packets passed up, count"
vector 173 SimpleNet.host[42].udp droppedPkWrongPort:vector(count) ETV
attr interpolationmode none
attr recordingmode vector(count)
attr source packetDropReasonIsNoPortFound(packetDropped)
attr title "packets dropped (wrong port), count"
vector 174 SimpleNet.host[42].udp droppedPkBadChecksum:vector(count) ETV
attr interpolationmode none
attr recordingmode vector(count)
attr source packetDropReasonIsIncorrectlyReceived(packetDropped)
attr title "packets dropped (checksum error), count"
vector 175 SimpleNet.host[43].energyStorage residualEnergyCapacity:vector ETV
attr interpolationmode linear
attr recordingmode vector
attr source residualEnergyCapacityChanged
attr title "Residual energy capacity"
attr unit J
vector 176 SimpleNet.host[43].udp passedUpPk:vector(count) ETV
attr interpolationmode none
attr recordingmode vector(count)
attr source packetSentToUpper
attr title "packets passed up, count"
vector 177 SimpleNet.host[43].udp droppedPkWrongPort:vector(count) ETV
attr interpolationmode none
attr recordingmode vector(count)
attr source packetDropReasonIsNoPortFound(packetDropped)
attr title "packets dropped (wrong port), count"
vector 178 SimpleNet.host[43].udp droppedPkBadChecksum:vector(count) ETV
attr interpolationmode none
attr recordingmode vector(count)
attr source packetDropReasonIsIncorrectlyReceived(packetDropped)
attr title "packets dropped (checksum error), count"
vector 179 SimpleNet.host[44].energyStorage residualEnergyCapacity:vector ETV
attr interpolationmode linear
attr recordingmode vector
attr source residualEnergyCapacityChanged
attr title "Residual energy capacity"
attr unit J
vector 180 SimpleNet.host[44].udp passedUpPk:vector(count) ETV
attr interpolationmode none
attr recordingmode vector(count)
attr source packetSentToUpper
attr title "packets passed up, count"
vector 181 SimpleNet.host[44].udp droppedPkWrongPort:vector(count) ETV
attr interpolationmode none
attr recordingmode vector(count)
attr source packetDropReasonIsNoPortFound(packetDropped)
attr title "packets dropped (wrong port), count"
vector 182 SimpleNet.host[44].udp droppedPkBadChecksum:vector(count) ETV
attr interpolationmode none
attr recordingmode vector(count)
attr source packetDropReasonIsIncorrectlyReceived(packetDropped)
attr title "packets dropped (checksum error), count"
vector 183 SimpleNet.host[45].energyStorage residualEnergyCapacity:vector ETV
attr interpolationmode linear
attr recordingmode vector
attr source residualEnergyCapacityChanged
attr title "Residual energy capacity"
attr unit J
vector 184 SimpleNet.host[45].udp passedUpPk:vector(count) ETV
attr interpolationmode none
attr recordingmode vector(count)
attr source packetSentToUpper
attr title "packets passed up, count"
vector 185 SimpleNet.host[45].udp droppedPkWrongPort:vector(count) ETV
attr interpolationmode none
attr recordingmode vector(count)
attr source packetDropReasonIsNoPortFound(packetDropped)
attr title "packets dropped (wrong port), count"
vector 186 SimpleNet.host[45].udp droppedPkBadChecksum:vector(count) ETV
attr interpolationmode none
attr recordingmode vector(count)
attr source packetDropReasonIsIncorrectlyReceived(packetDropped)
attr title "packets dropped (checksum error), count"
vector 187 SimpleNet.host[46].energyStorage residualEnergyCapacity:vector ETV
attr interpolationmode linear
attr recordingmode vector
attr source residualEnergyCapacityChanged
attr title "Residual energy capacity"
attr unit J
vector 188 SimpleNet.host[46].udp passedUpPk:vector(count) ETV
attr interpolationmode none
attr recordingmode vector(count)
attr source packetSentToUpper
attr title "packets passed up, count"
vector 189 SimpleNet.host[46].udp droppedPkWrongPort:vector(count) ETV
attr interpolationmode none
attr recordingmode vector(count)
attr source packetDropReasonIsNoPortFound(packetDropped)
attr title "packets dropped (wrong port), count"
vector 190 SimpleNet.host[46].udp droppedPkBadChecksum:vector(count) ETV
attr interpolationmode none
attr recordingmode vector(count)
attr source packetDropReasonIsIncorrectlyReceived(packetDropped)
attr title "packets dropped (checksum error), count"
vector 191 SimpleNet.host[47].energyStorage residualEnergyCapacity:vector ETV
attr interpolationmode linear
attr recordingmode vector
attr source residualEnergyCapacityChanged
attr title "Residual energy capacity"
attr unit J
vector 192 SimpleNet.host[47].udp passedUpPk:vector(count) ETV
attr interpolationmode none
attr recordingmode vector(count)
attr source packetSentToUpper
attr title "packets passed up, count"
vector 193 SimpleNet.host[47].udp droppedPkWrongPort:vector(count) ETV
attr interpolationmode none
attr recordingmode vector(count)
attr source packetDropReasonIsNoPortFound(packetDropped)
attr title "packets dropped (wrong port), count"
vector 194 SimpleNet.host[47].udp droppedPkBadChecksum:vector(count) ETV
attr interpolationmode none
attr recordingmode vector(count)
attr source packetDropReasonIsIncorrectlyReceived(packetDropped)
attr title "packets dropped (checksum error), count"
vector 195 SimpleNet.host[48].energyStorage residualEnergyCapacity:vector ETV
attr interpolationmode linear
attr recordingmode vector
attr source residualEnergyCapacityChanged
attr title "Residual energy capacity"
attr unit J
vector 196 SimpleNet.host[48].udp passedUpPk:vector(count) ETV
attr interpolationmode none
attr recordingmode vector(count)
attr source packetSentToUpper
attr title "packets passed up, count"
vector 197 SimpleNet.host[48].udp droppedPkWrongPort:vector(count) ETV
attr interpolationmode none
attr recordingmode vector(count)
attr source packetDropReasonIsNoPortFound(packetDropped)
attr title "packets dropped (wrong port), count"
vector 198 SimpleNet.host[48].udp droppedPkBadChecksum:vector(count) ETV
attr interpolationmode none
attr recordingmode vector(count)
attr source packetDropReasonIsIncorrectlyReceived(packetDropped)
attr title "packets dropped (checksum error), count"
vector 199 SimpleNet.host[49].energyStorage residualEnergyCapacity:vector ETV
attr interpolationmode linear
attr recordingmode vector
attr source residualEnergyCapacityChanged
attr title "Residual energy capacity"
attr unit J
vector 200 SimpleNet.host[49].udp passedUpPk:vector(count) ETV
attr interpolationmode none
attr recordingmode vector(count)
attr source packetSentToUpper
attr title "packets passed up, count"
vector 201 SimpleNet.host[49].udp droppedPkWrongPort:vector(count) ETV
attr interpolationmode none
attr recordingmode vector(count)
attr source packetDropReasonIsNoPortFound(packetDropped)
attr title "packets dropped (wrong port), count"
vector 202 SimpleNet.host[49].udp droppedPkBadChecksum:vector(count) ETV
attr interpolationmode none
attr recordingmode vector(count)
attr source packetDropReasonIsIncorrectlyReceived(packetDropped)
attr title "packets dropped (checksum error), count"
vector 203 SimpleNet.host[0].energyStorage powerConsumption:vector ETV
attr interpolationmode sample-hold
attr recordingmode vector
attr source powerConsumptionChanged
attr title "Power consumption"
attr unit W
vector 204 SimpleNet.host[1].energyStorage powerConsumption:vector ETV
attr interpolationmode sample-hold
attr recordingmode vector
attr source powerConsumptionChanged
attr title "Power consumption"
attr unit W
vector 205 SimpleNet.host[2].energyStorage powerConsumption:vector ETV
attr interpolationmode sample-hold
attr recordingmode vector
attr source powerConsumptionChanged
attr title "Power consumption"
attr unit W
vector 206 SimpleNet.host[3].energyStorage powerConsumption:vector ETV
attr interpolationmode sample-hold
attr recordingmode vector
attr source powerConsumptionChanged
attr title "Power consumption"
attr unit W
vector 207 SimpleNet.host[4].energyStorage powerConsumption:vector ETV
attr interpolationmode sample-hold
attr recordingmode vector
attr source powerConsumptionChanged
attr title "Power consumption"
attr unit W
vector 208 SimpleNet.host[5].energyStorage powerConsumption:vector ETV
attr interpolationmode sample-hold
attr recordingmode vector
attr source powerConsumptionChanged
attr title "Power consumption"
attr unit W
vector 209 SimpleNet.host[6].energyStorage powerConsumption:vector ETV
attr interpolationmode sample-hold
attr recordingmode vector
attr source powerConsumptionChanged
attr title "Power consumption"
attr unit W
vector 210 SimpleNet.host[7].energyStorage powerConsumption:vector ETV
attr interpolationmode sample-hold
attr recordingmode vector
attr source powerConsumptionChanged
attr title "Power consumption"
attr unit W
vector 211 SimpleNet.host[8].energyStorage powerConsumption:vector ETV
attr interpolationmode sample-hold
attr recordingmode vector
attr source powerConsumptionChanged
attr title "Power consumption"
attr unit W
vector 212 SimpleNet.host[9].energyStorage powerConsumption:vector ETV
attr interpolationmode sample-hold
attr recordingmode vector
attr source powerConsumptionChanged
attr title "Power consumption"
attr unit W
vector 213 SimpleNet.host[10].energyStorage powerConsumption:vector ETV
attr interpolationmode sample-hold
attr recordingmode vector
attr source powerConsumptionChanged
attr title "Power consumption"
attr unit W
vector 214 SimpleNet.host[11].energyStorage powerConsumption:vector ETV
attr interpolationmode sample-hold
attr recordingmode vector
attr source powerConsumptionChanged
attr title "Power consumption"
attr unit W
vector 215 SimpleNet.host[12].energyStorage powerConsumption:vector ETV
attr interpolationmode sample-hold
attr recordingmode vector
attr source powerConsumptionChanged
attr title "Power consumption"
attr unit W
vector 216 SimpleNet.host[13].energyStorage powerConsumption:vector ETV
attr interpolationmode sample-hold
attr recordingmode vector
attr source powerConsumptionChanged
attr title "Power consumption"
attr unit W
vector 217 SimpleNet.host[14].energyStorage powerConsumption:vector ETV
attr interpolationmode sample-hold
attr recordingmode vector
attr source powerConsumptionChanged
attr title "Power consumption"
attr unit W
vector 218 SimpleNet.host[15].energyStorage powerConsumption:vector ETV
attr interpolationmode sample-hold
attr recordingmode vector
attr source powerConsumptionChanged
attr title "Power consumption"
attr unit W
vector 219 SimpleNet.host[16].energyStorage powerConsumption:vector ETV
attr interpolationmode sample-hold
attr recordingmode vector
attr source powerConsumptionChanged
attr title "Power consumption"
attr unit W
vector 220 SimpleNet.host[17].energyStorage powerConsumption:vector ETV
attr interpolationmode sample-hold
attr recordingmode vector
attr source powerConsumptionChanged
attr title "Power consumption"
attr unit W
vector 221 SimpleNet.host[18].energyStorage powerConsumption:vector ETV
attr interpolationmode sample-hold
attr recordingmode vector
attr source powerConsumptionChanged
attr title "Power consumption"
attr unit W
vector 222 SimpleNet.host[19].energyStorage powerConsumption:vector ETV
attr interpolationmode sample-hold
attr recordingmode vector
attr source powerConsumptionChanged
attr title "Power consumption"
attr unit W
vector 223 SimpleNet.host[20].energyStorage powerConsumption:vector ETV
attr interpolationmode sample-hold
attr recordingmode vector
attr source powerConsumptionChanged
attr title "Power consumption"
attr unit W
vector 224 SimpleNet.host[21].energyStorage powerConsumption:vector ETV
attr interpolationmode sample-hold
attr recordingmode vector
attr source powerConsumptionChanged
attr title "Power consumption"
attr unit W
vector 225 SimpleNet.host[22].energyStorage powerConsumption:vector ETV
attr interpolationmode sample-hold
attr recordingmode vector
attr source powerConsumptionChanged
attr title "Power consumption"
attr unit W
vector 226 SimpleNet.host[23].energyStorage powerConsumption:vector ETV
attr interpolationmode sample-hold
attr recordingmode vector
attr source powerConsumptionChanged
attr title "Power consumption"
attr unit W
vector 227 SimpleNet.host[24].energyStorage powerConsumption:vector ETV
attr interpolationmode sample-hold
attr recordingmode vector
attr source powerConsumptionChanged
attr title "Power consumption"
attr unit W
vector 228 SimpleNet.host[25].energyStorage powerConsumption:vector ETV
attr interpolationmode sample-hold
attr recordingmode vector
attr source powerConsumptionChanged
attr title "Power consumption"
attr unit W
vector 229 SimpleNet.host[26].energyStorage powerConsumption:vector ETV
attr interpolationmode sample-hold
attr recordingmode vector
attr source powerConsumptionChanged
attr title "Power consumption"
attr unit W
vector 230 SimpleNet.host[27].energyStorage powerConsumption:vector ETV
attr interpolationmode sample-hold
attr recordingmode vector
attr source powerConsumptionChanged
attr title "Power consumption"
attr unit W
vector 231 SimpleNet.host[28].energyStorage powerConsumption:vector ETV
attr interpolationmode sample-hold
attr recordingmode vector
attr source powerConsumptionChanged
attr title "Power consumption"
attr unit W
vector 232 SimpleNet.host[29].energyStorage powerConsumption:vector ETV
attr interpolationmode sample-hold
attr recordingmode vector
attr source powerConsumptionChanged
attr title "Power consumption"
attr unit W
vector 233 SimpleNet.host[30].energyStorage powerConsumption:vector ETV
attr interpolationmode sample-hold
attr recordingmode vector
attr source powerConsumptionChanged
attr title "Power consumption"
attr unit W
vector 234 SimpleNet.host[31].energyStorage powerConsumption:vector ETV
attr interpolationmode sample-hold
attr recordingmode vector
attr source powerConsumptionChanged
attr title "Power consumption"
attr unit W
vector 235 SimpleNet.host[32].energyStorage powerConsumption:vector ETV
attr interpolationmode sample-hold
attr recordingmode vector
attr source powerConsumptionChanged
attr title "Power consumption"
attr unit W
vector 236 SimpleNet.host[33].energyStorage powerConsumption:vector ETV
attr interpolationmode sample-hold
attr recordingmode vector
attr source powerConsumptionChanged
attr title "Power consumption"
attr unit W
vector 237 SimpleNet.host[34].energyStorage powerConsumption:vector ETV
attr interpolationmode sample-hold
attr recordingmode vector
attr source powerConsumptionChanged
attr title "Power consumption"
attr unit W
vector 238 SimpleNet.host[35].energyStorage powerConsumption:vector ETV
attr interpolationmode sample-hold
attr recordingmode vector
attr source powerConsumptionChanged
attr title "Power consumption"
attr unit W
vector 239 SimpleNet.host[36].energyStorage powerConsumption:vector ETV
attr interpolationmode sample-hold
attr recordingmode vector
attr source powerConsumptionChanged
attr title "Power consumption"
attr unit W
vector 240 SimpleNet.host[37].energyStorage powerConsumption:vector ETV
attr interpolationmode sample-hold
attr recordingmode vector
attr source powerConsumptionChanged
attr title "Power consumption"
attr unit W
vector 241 SimpleNet.host[38].energyStorage powerConsumption:vector ETV
attr interpolationmode sample-hold
attr recordingmode vector
attr source powerConsumptionChanged
attr title "Power consumption"
attr unit W
vector 242 SimpleNet.host[39].energyStorage powerConsumption:vector ETV
attr interpolationmode sample-hold
attr recordingmode vector
attr source powerConsumptionChanged
attr title "Power consumption"
attr unit W
vector 243 SimpleNet.host[40].energyStorage powerConsumption:vector ETV
attr interpolationmode sample-hold
attr recordingmode vector
attr source powerConsumptionChanged
attr title "Power consumption"
attr unit W
vector 244 SimpleNet.host[41].energyStorage powerConsumption:vector ETV
attr interpolationmode sample-hold
attr recordingmode vector
attr source powerConsumptionChanged
attr title "Power consumption"
attr unit W
vector 245 SimpleNet.host[42].energyStorage powerConsumption:vector ETV
attr interpolationmode sample-hold
attr recordingmode vector
attr source powerConsumptionChanged
attr title "Power consumption"
attr unit W
vector 246 SimpleNet.host[43].energyStorage powerConsumption:vector ETV
attr interpolationmode sample-hold
attr recordingmode vector
attr source powerConsumptionChanged
attr title "Power consumption"
attr unit W
vector 247 SimpleNet.host[44].energyStorage powerConsumption:vector ETV
attr interpolationmode sample-hold
attr recordingmode vector
attr source powerConsumptionChanged
attr title "Power consumption"
attr unit W
vector 248 SimpleNet.host[45].energyStorage powerConsumption:vector ETV
attr interpolationmode sample-hold
attr recordingmode vector
attr source powerConsumptionChanged
attr title "Power consumption"
attr unit W
vector 249 SimpleNet.host[46].energyStorage powerConsumption:vector ETV
attr interpolationmode sample-hold
attr recordingmode vector
attr source powerConsumptionChanged
attr title "Power consumption"
attr unit W
vector 250 SimpleNet.host[47].energyStorage powerConsumption:vector ETV
attr interpolationmode sample-hold
attr recordingmode vector
attr source powerConsumptionChanged
attr title "Power consumption"
attr unit W
vector 251 SimpleNet.host[48].energyStorage powerConsumption:vector ETV
attr interpolationmode sample-hold
attr recordingmode vector
attr source powerConsumptionChanged
attr title "Power consumption"
attr unit W
vector 252 SimpleNet.host[49].energyStorage powerConsumption:vector ETV
attr interpolationmode sample-hold
attr recordingmode vector
attr source powerConsumptionChanged
attr title "Power consumption"
attr unit W
vector 253 SimpleNet.baseStation.wlan[0].radio radioMode:vector ETV
attr interpolationmode sample-hold
attr recordingmode vector
attr source radioModeChanged
attr title "Radio mode"
vector 254 SimpleNet.host[0].wlan[0].radio radioMode:vector ETV
attr interpolationmode sample-hold
attr recordingmode vector
attr source radioModeChanged
attr title "Radio mode"
vector 255 SimpleNet.host[0].wlan[0].radio.energyConsumer powerConsumption:vector ETV
attr interpolationmode sample-hold
attr recordingmode vector
attr source powerConsumptionChanged
attr title "Power consumption"
attr unit W
vector 256 SimpleNet.host[1].wlan[0].radio radioMode:vector ETV
attr interpolationmode sample-hold
attr recordingmode vector
attr source radioModeChanged
attr title "Radio mode"
vector 257 SimpleNet.host[1].wlan[0].radio.energyConsumer powerConsumption:vector ETV
attr interpolationmode sample-hold
attr recordingmode vector
attr source powerConsumptionChanged
attr title "Power consumption"
attr unit W
vector 258 SimpleNet.host[2].wlan[0].radio radioMode:vector ETV
attr interpolationmode sample-hold
attr recordingmode vector
attr source radioModeChanged
attr title "Radio mode"
vector 259 SimpleNet.host[2].wlan[0].radio.energyConsumer powerConsumption:vector ETV
attr interpolationmode sample-hold
attr recordingmode vector
attr source powerConsumptionChanged
attr title "Power consumption"
attr unit W
vector 260 SimpleNet.host[3].wlan[0].radio radioMode:vector ETV
attr interpolationmode sample-hold
attr recordingmode vector
attr source radioModeChanged
attr title "Radio mode"
vector 261 SimpleNet.host[3].wlan[0].radio.energyConsumer powerConsumption:vector ETV
attr interpolationmode sample-hold
attr recordingmode vector
attr source powerConsumptionChanged
attr title "Power consumption"
attr unit W
vector 262 SimpleNet.host[4].wlan[0].radio radioMode:vector ETV
attr interpolationmode sample-hold
attr recordingmode vector
attr source radioModeChanged
attr title "Radio mode"
vector 263 SimpleNet.host[4].wlan[0].radio.energyConsumer powerConsumption:vector ETV
attr interpolationmode sample-hold
attr recordingmode vector
attr source powerConsumptionChanged
attr title "Power consumption"
attr unit W
vector 264 SimpleNet.host[5].wlan[0].radio radioMode:vector ETV
attr interpolationmode sample-hold
attr recordingmode vector
attr source radioModeChanged
attr title "Radio mode"
vector 265 SimpleNet.host[5].wlan[0].radio.energyConsumer powerConsumption:vector ETV
attr interpolationmode sample-hold
attr recordingmode vector
attr source powerConsumptionChanged
attr title "Power consumption"
attr unit W
vector 266 SimpleNet.host[6].wlan[0].radio radioMode:vector ETV
attr interpolationmode sample-hold
attr recordingmode vector
attr source radioModeChanged
attr title "Radio mode"
vector 267 SimpleNet.host[6].wlan[0].radio.energyConsumer powerConsumption:vector ETV
attr interpolationmode sample-hold
attr recordingmode vector
attr source powerConsumptionChanged
attr title "Power consumption"
attr unit W
vector 268 SimpleNet.host[7].wlan[0].radio radioMode:vector ETV
attr interpolationmode sample-hold
attr recordingmode vector
attr source radioModeChanged
attr title "Radio mode"
vector 269 SimpleNet.host[7].wlan[0].radio.energyConsumer powerConsumption:vector ETV
attr interpolationmode sample-hold
attr recordingmode vector
attr source powerConsumptionChanged
attr title "Power consumption"
attr unit W
vector 270 SimpleNet.host[8].wlan[0].radio radioMode:vector ETV
attr interpolationmode sample-hold
attr recordingmode vector
attr source radioModeChanged
attr title "Radio mode"
vector 271 SimpleNet.host[8].wlan[0].radio.energyConsumer powerConsumption:vector ETV
attr interpolationmode sample-hold
attr recordingmode vector
attr source powerConsumptionChanged
attr title "Power consumption"
attr unit W
vector 272 SimpleNet.host[9].wlan[0].radio radioMode:vector ETV
attr interpolationmode sample-hold
attr recordingmode vector
attr source radioModeChanged
attr title "Radio mode"
vector 273 SimpleNet.host[9].wlan[0].radio.energyConsumer powerConsumption:vector ETV
attr interpolationmode sample-hold
attr recordingmode vector
attr source powerConsumptionChanged
attr title "Power consumption"
attr unit W
vector 274 SimpleNet.host[10].wlan[0].radio radioMode:vector ETV
attr interpolationmode sample-hold
attr recordingmode vector
attr source radioModeChanged
attr title "Radio mode"
vector 275 SimpleNet.host[10].wlan[0].radio.energyConsumer powerConsumption:vector ETV
attr interpolationmode sample-hold
attr recordingmode vector
attr source powerConsumptionChanged
attr title "Power consumption"
attr unit W
vector 276 SimpleNet.host[11].wlan[0].radio radioMode:vector ETV
attr interpolationmode sample-hold
attr recordingmode vector
attr source radioModeChanged
attr title "Radio mode"
vector 277 SimpleNet.host[11].wlan[0].radio.energyConsumer powerConsumption:vector ETV
attr interpolationmode sample-hold
attr recordingmode vector
attr source powerConsumptionChanged
attr title "Power consumption"
attr unit W
vector 278 SimpleNet.host[12].wlan[0].radio radioMode:vector ETV
attr interpolationmode sample-hold
attr recordingmode vector
attr source radioModeChanged
attr title "Radio mode"
vector 279 SimpleNet.host[12].wlan[0].radio.energyConsumer powerConsumption:vector ETV
attr interpolationmode sample-hold
attr recordingmode vector
attr source powerConsumptionChanged
attr title "Power consumption"
attr unit W
vector 280 SimpleNet.host[13].wlan[0].radio radioMode:vector ETV
attr interpolationmode sample-hold
attr recordingmode vector
attr source radioModeChanged
attr title "Radio mode"
vector 281 SimpleNet.host[13].wlan[0].radio.energyConsumer powerConsumption:vector ETV
attr interpolationmode sample-hold
attr recordingmode vector
attr source powerConsumptionChanged
attr title "Power consumption"
attr unit W
vector 282 SimpleNet.host[14].wlan[0].radio radioMode:vector ETV
attr interpolationmode sample-hold
attr recordingmode vector
attr source radioModeChanged
attr title "Radio mode"
vector 283 SimpleNet.host[14].wlan[0].radio.energyConsumer powerConsumption:vector ETV
attr interpolationmode sample-hold
attr recordingmode vector
attr source powerConsumptionChanged
attr title "Power consumption"
attr unit W
vector 284 SimpleNet.host[15].wlan[0].radio radioMode:vector ETV
attr interpolationmode sample-hold
attr recordingmode vector
attr source radioModeChanged
attr title "Radio mode"
vector 285 SimpleNet.host[15].wlan[0].radio.energyConsumer powerConsumption:vector ETV
attr interpolationmode sample-hold
attr recordingmode vector
attr source powerConsumptionChanged
attr title "Power consumption"
attr unit W
vector 286 SimpleNet.host[16].wlan[0].radio radioMode:vector ETV
attr interpolationmode sample-hold
attr recordingmode vector
attr source radioModeChanged
attr title "Radio mode"
vector 287 SimpleNet.host[16].wlan[0].radio.energyConsumer powerConsumption:vector ETV
attr interpolationmode sample-hold
attr recordingmode vector
attr source powerConsumptionChanged
attr title "Power consumption"
attr unit W
vector 288 SimpleNet.host[17].wlan[0].radio radioMode:vector ETV
attr interpolationmode sample-hold
attr recordingmode vector
attr source radioModeChanged
attr title "Radio mode"
vector 289 SimpleNet.host[17].wlan[0].radio.energyConsumer powerConsumption:vector ETV
attr interpolationmode sample-hold
attr recordingmode vector
attr source powerConsumptionChanged
attr title "Power consumption"
attr unit W
vector 290 SimpleNet.host[18].wlan[0].radio radioMode:vector ETV
attr interpolationmode sample-hold
attr recordingmode vector
attr source radioModeChanged
attr title "Radio mode"
vector 291 SimpleNet.host[18].wlan[0].radio.energyConsumer powerConsumption:vector ETV
attr interpolationmode sample-hold
attr recordingmode vector
attr source powerConsumptionChanged
attr title "Power consumption"
attr unit W
vector 292 SimpleNet.host[19].wlan[0].radio radioMode:vector ETV
attr interpolationmode sample-hold
attr recordingmode vector
attr source radioModeChanged
attr title "Radio mode"
vector 293 SimpleNet.host[19].wlan[0].radio.energyConsumer powerConsumption:vector ETV
attr interpolationmode sample-hold
attr recordingmode vector
attr source powerConsumptionChanged
attr title "Power consumption"
attr unit W
vector 294 SimpleNet.host[20].wlan[0].radio radioMode:vector ETV
attr interpolationmode sample-hold
attr recordingmode vector
attr source radioModeChanged
attr title "Radio mode"
vector 295 SimpleNet.host[20].wlan[0].radio.energyConsumer powerConsumption:vector ETV
attr interpolationmode sample-hold
attr recordingmode vector
attr source powerConsumptionChanged
attr title "Power consumption"
attr unit W
vector 296 SimpleNet.host[21].wlan[0].radio radioMode:vector ETV
attr interpolationmode sample-hold
attr recordingmode vector
attr source radioModeChanged
attr title "Radio mode"
vector 297 SimpleNet.host[21].wlan[0].radio.energyConsumer powerConsumption:vector ETV
attr interpolationmode sample-hold
attr recordingmode vector
attr source powerConsumptionChanged
attr title "Power consumption"
attr unit W
vector 298 SimpleNet.host[22].wlan[0].radio radioMode:vector ETV
attr interpolationmode sample-hold
attr recordingmode vector
attr source radioModeChanged
attr title "Radio mode"
vector 299 SimpleNet.host[22].wlan[0].radio.energyConsumer powerConsumption:vector ETV
attr interpolationmode sample-hold
attr recordingmode vector
attr source powerConsumptionChanged
attr title "Power consumption"
attr unit W
vector 300 SimpleNet.host[23].wlan[0].radio radioMode:vector ETV
attr interpolationmode sample-hold
attr recordingmode vector
attr source radioModeChanged
attr title "Radio mode"
vector 301 SimpleNet.host[23].wlan[0].radio.energyConsumer powerConsumption:vector ETV
attr interpolationmode sample-hold
attr recordingmode vector
attr source powerConsumptionChanged
attr title "Power consumption"
attr unit W
vector 302 SimpleNet.host[24].wlan[0].radio radioMode:vector ETV
attr interpolationmode sample-hold
attr recordingmode vector
attr source radioModeChanged
attr title "Radio mode"
vector 303 SimpleNet.host[24].wlan[0].radio.energyConsumer powerConsumption:vector ETV
attr interpolationmode sample-hold
attr recordingmode vector
attr source powerConsumptionChanged
attr title "Power consumption"
attr unit W
vector 304 SimpleNet.host[25].wlan[0].radio radioMode:vector ETV
attr interpolationmode sample-hold
attr recordingmode vector
attr source radioModeChanged
attr title "Radio mode"
vector 305 SimpleNet.host[25].wlan[0].radio.energyConsumer powerConsumption:vector ETV
attr interpolationmode sample-hold
attr recordingmode vector
attr source powerConsumptionChanged
attr title "Power consumption"
attr unit W
vector 306 SimpleNet.host[26].wlan[0].radio radioMode:vector ETV
attr interpolationmode sample-hold
attr recordingmode vector
attr source radioModeChanged
attr title "Radio mode"
vector 307 SimpleNet.host[26].wlan[0].radio.energyConsumer powerConsumption:vector ETV
attr interpolationmode sample-hold
attr recordingmode vector
attr source powerConsumptionChanged
attr title "Power consumption"
attr unit W
vector 308 SimpleNet.host[27].wlan[0].radio radioMode:vector ETV
attr interpolationmode sample-hold
attr recordingmode vector
attr source radioModeChanged
attr title "Radio mode"
vector 309 SimpleNet.host[27].wlan[0].radio.energyConsumer powerConsumption:vector ETV
attr interpolationmode sample-hold
attr recordingmode vector
attr source powerConsumptionChanged
attr title "Power consumption"
attr unit W
vector 310 SimpleNet.host[28].wlan[0].radio radioMode:vector ETV
attr interpolationmode sample-hold
attr recordingmode vector
attr source radioModeChanged
attr title "Radio mode"
vector 311 SimpleNet.host[28].wlan[0].radio.energyConsumer powerConsumption:vector ETV
attr interpolationmode sample-hold
attr recordingmode vector
attr source powerConsumptionChanged
attr title "Power consumption"
attr unit W
vector 312 SimpleNet.host[29].wlan[0].radio radioMode:vector ETV
attr interpolationmode sample-hold
attr recordingmode vector
attr source radioModeChanged
attr title "Radio mode"
vector 313 SimpleNet.host[29].wlan[0].radio.energyConsumer powerConsumption:vector ETV
attr interpolationmode sample-hold
attr recordingmode vector
attr source powerConsumptionChanged
attr title "Power consumption"
attr unit W
vector 314 SimpleNet.host[30].wlan[0].radio radioMode:vector ETV
attr interpolationmode sample-hold
attr recordingmode vector
attr source radioModeChanged
attr title "Radio mode"
vector 315 SimpleNet.host[30].wlan[0].radio.energyConsumer powerConsumption:vector ETV
attr interpolationmode sample-hold
attr recordingmode vector
attr source powerConsumptionChanged
attr title "Power consumption"
attr unit W
vector 316 SimpleNet.host[31].wlan[0].radio radioMode:vector ETV
attr interpolationmode sample-hold
attr recordingmode vector
attr source radioModeChanged
attr title "Radio mode"
vector 317 SimpleNet.host[31].wlan[0].radio.energyConsumer powerConsumption:vector ETV
attr interpolationmode sample-hold
attr recordingmode vector
attr source powerConsumptionChanged
attr title "Power consumption"
attr unit W
vector 318 SimpleNet.host[32].wlan[0].radio radioMode:vector ETV
attr interpolationmode sample-hold
attr recordingmode vector
attr source radioModeChanged
attr title "Radio mode"
vector 319 SimpleNet.host[32].wlan[0].radio.energyConsumer powerConsumption:vector ETV
attr interpolationmode sample-hold
attr recordingmode vector
attr source powerConsumptionChanged
attr title "Power consumption"
attr unit W
vector 320 SimpleNet.host[33].wlan[0].radio radioMode:vector ETV
attr interpolationmode sample-hold
attr recordingmode vector
attr source radioModeChanged
attr title "Radio mode"
vector 321 SimpleNet.host[33].wlan[0].radio.energyConsumer powerConsumption:vector ETV
attr interpolationmode sample-hold
attr recordingmode vector
attr source powerConsumptionChanged
attr title "Power consumption"
attr unit W
vector 322 SimpleNet.host[34].wlan[0].radio radioMode:vector ETV
attr interpolationmode sample-hold
attr recordingmode vector
attr source radioModeChanged
attr title "Radio mode"
vector 323 SimpleNet.host[34].wlan[0].radio.energyConsumer powerConsumption:vector ETV
attr interpolationmode sample-hold
attr recordingmode vector
attr source powerConsumptionChanged
attr title "Power consumption"
attr unit W
vector 324 SimpleNet.host[35].wlan[0].radio radioMode:vector ETV
attr interpolationmode sample-hold
attr recordingmode vector
attr source radioModeChanged
attr title "Radio mode"
vector 325 SimpleNet.host[35].wlan[0].radio.energyConsumer powerConsumption:vector ETV
attr interpolationmode sample-hold
attr recordingmode vector
attr source powerConsumptionChanged
attr title "Power consumption"
attr unit W
vector 326 SimpleNet.host[36].wlan[0].radio radioMode:vector ETV
attr interpolationmode sample-hold
attr recordingmode vector
attr source radioModeChanged
attr title "Radio mode"
vector 327 SimpleNet.host[36].wlan[0].radio.energyConsumer powerConsumption:vector ETV
attr interpolationmode sample-hold
attr recordingmode vector
attr source powerConsumptionChanged
attr title "Power consumption"
attr unit W
vector 328 SimpleNet.host[37].wlan[0].radio radioMode:vector ETV
attr interpolationmode sample-hold
attr recordingmode vector
attr source radioModeChanged
attr title "Radio mode"
vector 329 SimpleNet.host[37].wlan[0].radio.energyConsumer powerConsumption:vector ETV
attr interpolationmode sample-hold
attr recordingmode vector
attr source powerConsumptionChanged
attr title "Power consumption"
attr unit W
vector 330 SimpleNet.host[38].wlan[0].radio radioMode:vector ETV
attr interpolationmode sample-hold
attr recordingmode vector
attr source radioModeChanged
attr title "Radio mode"
vector 331 SimpleNet.host[38].wlan[0].radio.energyConsumer powerConsumption:vector ETV
attr interpolationmode sample-hold
attr recordingmode vector
attr source powerConsumptionChanged
attr title "Power consumption"
attr unit W
vector 332 SimpleNet.host[39].wlan[0].radio radioMode:vector ETV
attr interpolationmode sample-hold
attr recordingmode vector
attr source radioModeChanged
attr title "Radio mode"
vector 333 SimpleNet.host[39].wlan[0].radio.energyConsumer powerConsumption:vector ETV
attr interpolationmode sample-hold
attr recordingmode vector
attr source powerConsumptionChanged
attr title "Power consumption"
attr unit W
vector 334 SimpleNet.host[40].wlan[0].radio radioMode:vector ETV
attr interpolationmode sample-hold
attr recordingmode vector
attr source radioModeChanged
attr title "Radio mode"
vector 335 SimpleNet.host[40].wlan[0].radio.energyConsumer powerConsumption:vector ETV
attr interpolationmode sample-hold
attr recordingmode vector
attr source powerConsumptionChanged
attr title "Power consumption"
attr unit W
vector 336 SimpleNet.host[41].wlan[0].radio radioMode:vector ETV
attr interpolationmode sample-hold
attr recordingmode vector
attr source radioModeChanged
attr title "Radio mode"
vector 337 SimpleNet.host[41].wlan[0].radio.energyConsumer powerConsumption:vector ETV
attr interpolationmode sample-hold
attr recordingmode vector
attr source powerConsumptionChanged
attr title "Power consumption"
attr unit W
vector 338 SimpleNet.host[42].wlan[0].radio radioMode:vector ETV
attr interpolationmode sample-hold
attr recordingmode vector
attr source radioModeChanged
attr title "Radio mode"
vector 339 SimpleNet.host[42].wlan[0].radio.energyConsumer powerConsumption:vector ETV
attr interpolationmode sample-hold
attr recordingmode vector
attr source powerConsumptionChanged
attr title "Power consumption"
attr unit W
vector 340 SimpleNet.host[43].wlan[0].radio radioMode:vector ETV
attr interpolationmode sample-hold
attr recordingmode vector
attr source radioModeChanged
attr title "Radio mode"
vector 341 SimpleNet.host[43].wlan[0].radio.energyConsumer powerConsumption:vector ETV
attr interpolationmode sample-hold
attr recordingmode vector
attr source powerConsumptionChanged
attr title "Power consumption"
attr unit W
vector 342 SimpleNet.host[44].wlan[0].radio radioMode:vector ETV
attr interpolationmode sample-hold
attr recordingmode vector
attr source radioModeChanged
attr title "Radio mode"
vector 343 SimpleNet.host[44].wlan[0].radio.energyConsumer powerConsumption:vector ETV
attr interpolationmode sample-hold
attr recordingmode vector
attr source powerConsumptionChanged
attr title "Power consumption"
attr unit W
vector 344 SimpleNet.host[45].wlan[0].radio radioMode:vector ETV
attr interpolationmode sample-hold
attr recordingmode vector
attr source radioModeChanged
attr title "Radio mode"
vector 345 SimpleNet.host[45].wlan[0].radio.energyConsumer powerConsumption:vector ETV
attr interpolationmode sample-hold
attr recordingmode vector
attr source powerConsumptionChanged
attr title "Power consumption"
attr unit W
vector 346 SimpleNet.host[46].wlan[0].radio radioMode:vector ETV
attr interpolationmode sample-hold
attr recordingmode vector
attr source radioModeChanged
attr title "Radio mode"
vector 347 SimpleNet.host[46].wlan[0].radio.energyConsumer powerConsumption:vector ETV
attr interpolationmode sample-hold
attr recordingmode vector
attr source powerConsumptionChanged
attr title "Power consumption"
attr unit W
vector 348 SimpleNet.host[47].wlan[0].radio radioMode:vector ETV
attr interpolationmode sample-hold
attr recordingmode vector
attr source radioModeChanged
attr title "Radio mode"
vector 349 SimpleNet.host[47].wlan[0].radio.energyConsumer powerConsumption:vector ETV
attr interpolationmode sample-hold
attr recordingmode vector
attr source powerConsumptionChanged
attr title "Power consumption"
attr unit W
[...]
420	751	0.322072007875	4.8772760965704e-05
420	916	0.429523443673	3.2179585502543e-05
420	1044	0.433132916453	3.2497100257357e-10
420	1225	0.436619388657	1.1176037579007e-10
420	1534	0.472486437024	2.3654998456139e-33
420	1740	0.571359632719	1.8235413724942e-05
420	1909	0.620370056963	1.1459472298261e-06
420	2040	0.638246084153	1.6752134191365e-10
421	88	0.035019623963	9.7863252508695e-09
421	432	0.136548635195	7.4050280879309e-08
421	1041	0.433132906172	1.3730643757179e-10
421	1270	0.436619660218	2.9240739060389e-05
421	1362	0.449640306314	6.3946536418291e-112
421	1846	0.620369704052	3.1743234224696e-27
421	2043	0.638246140358	9.7863252508695e-09
421	2197	0.652857556798	2.7578175470764e-26
421	2369	0.654915229134	3.0717798197285e-13
422	91	0.03501965586	5.8835773554379e-08
422	252	0.095368243531	3.6441700194004e-17
422	580	0.302649331445	3.7537797405163e-09
422	742	0.322071969366	2.0354639780114e-05
422	877	0.429523145279	1.316286944847e-11
422	1047	0.433132963895	9.3182470434129e-09
422	1201	0.436619087224	1.1334169829534e-70
422	1558	0.47248670784	4.9559830003379e-09
422	1707	0.571359364898	2.5510753199463e-11
422	1885	0.620370014161	1.9863850435428e-07
422	2046	0.638246172255	5.8835773554379e-08
422	2571	0.662848324644	7.6273497273331e-05
423	94	0.035019658341	6.6815297691646e-08
423	291	0.095368557991	4.6053737023296e-06
423	616	0.302649545233	2.2099010549436e-05
423	1068	0.433133053279	7.478971647606e-07
423	1531	0.472486413058	2.1422706945671e-40
423	1927	0.620370241013	0.00012738381822259
423	2049	0.638246174736	6.6815297691646e-08
424	97	0.035019662195	8.1147004772025e-08
424	417	0.136548353075	6.1957090524775e-26
424	1053	0.433132973283	1.6361045791287e-08
424	1365	0.44964035533	1.0915706720766e-60
424	1855	0.620369828831	6.4004191327175e-14
424	2052	0.63824617859	8.1147004772025e-08
424	2351	0.654915026209	1.3060479474303e-45
424	2499	0.66284782081	2.7578175470764e-26
425	100	0.035019667329	1.0449889776774e-07
425	282	0.095368515056	1.0796679351565e-06
425	607	0.302649500115	6.6893560405072e-06
425	1071	0.433133058622	9.1835735582049e-07
425	1528	0.47248640671	1.1685574259568e-42
425	1930	0.620370244589	0.00013556671664206
425	2055	0.638246183724	1.0449889776774e-07
426	103	0.035019679811	1.8813153300485e-07
426	276	0.095368436663	3.0962794739211e-08
426	613	0.3026495206	1.1830840378546e-05
426	874	0.429523050862	1.4271701957556e-17
426	1050	0.433132966781	1.1112969905321e-08
426	1195	0.436619008046	2.9372226035031e-247
426	1437	0.449640957639	7.2911890324205e-05
426	1582	0.472486850916	3.4900693775883e-06
426	1704	0.571359349821	5.4584492073086e-12
426	1870	0.620369943119	4.0097220473109e-09
426	2058	0.638246196206	1.8813153300485e-07
426	2550	0.662848190812	2.5132351323475e-06
427	106	0.035019689465	2.8925982191204e-07
427	426	0.136548523559	2.9893590689274e-11
427	1056	0.433132981493	2.615638935198e-08
427	1852	0.620369792971	2.0778698791196e-16
427	2061	0.63824620586	2.8925982191204e-07
427	2188	0.652857456007	1.0915706720766e-60
427	2360	0.654915096748	1.7632722351104e-26
427	2493	0.662847671003	6.3946536418291e-112
428	109	0.035019714486	8.0617688007812e-07
428	898	0.429523283731	1.8039029263009e-07
428	1059	0.43313298398	3.0028106970452e-08
428	1222	0.43661937787	4.1935903141607e-11
428	1398	0.449640659706	4.4969806818537e-10
428	1743	0.57135964686	2.567830757524e-05
428	1858	0.620369829044	6.5923609608967e-14
428	2064	0.638246230881	8.0617688007812e-07
428	2242	0.652857913051	1.5663767501411e-06
428	2396	0.6549155799	4.9122292663548e-05
428	2505	0.662847897527	5.6440536665581e-17
429	112	0.03501973474	1.6986583882398e-06
429	261	0.095368366358	2.7099848903272e-10
429	595	0.302649446397	1.150812256607e-06
429	760	0.322072033252	8.1176186366187e-05
429	865	0.429523002916	6.5915167614883e-23
429	1062	0.433133027427	2.5623107992786e-07
429	1585	0.472486858835	4.4726899954739e-06
429	1695	0.571359274631	1.1935965441519e-16
429	1894	0.620370022439	2.869744175032e-07
429	2067	0.638246251135	1.6986583882398e-06
429	2565	0.662848279261	2.9240739060389e-05
430	115	0.035019738677	1.9479983226359e-06
430	258	0.095368341142	2.8626298090732e-11
430	589	0.302649420991	4.2514790320775e-07
430	754	0.322072009293	5.0245916428921e-05
430	868	0.42952300736	2.6257202747189e-22
430	1065	0.433133033524	3.3394164014412e-07
430	1192	0.436618944749	0
430	1579	0.472486848601	3.2404928755959e-06
430	1692	0.571359266421	2.4191185683806e-17
430	1903	0.620370036188	5.1202526111545e-07
430	2070	0.638246255072	1.9479983226359e-06
430	2568	0.6628482995	4.5769896757063e-05
431	118	0.035019765054	4.594100282586e-06
431	402	0.136548222412	9.1773233742641e-84
431	1074	0.433133086183	2.4520280112065e-06
431	1377	0.449640475596	3.0337936538606e-23
431	1876	0.620369961049	1.2417605109221e-08
431	2073	0.638246281449	4.594100282586e-06
431	2185	0.652857415489	4.1392951714975e-99
431	2345	0.65491496947	1.5107386854058e-83
431	2523	0.66284795632	5.2356444349417e-13
432	121	0.03501983298	2.8140701665107e-05
432	1086	0.433133167623	2.4397458573754e-05
432	1389	0.449640628666	2.9893590689274e-11
432	1912	0.620370073707	2.0774487540757e-06
432	2076	0.638246349375	2.8140701665107e-05
432	2200	0.652857558859	6.1957090524775e-26
432	2354	0.654915081535	2.2990590876156e-29
432	2541	0.662848104991	7.4050280879309e-08
433	124	0.035019847492	3.9020977942031e-05
433	273	0.095368426721	1.7659091483259e-08
433	586	0.302649363608	2.670240385945e-08
433	763	0.322072072868	0.00016459814263269
433	1101	0.433133228486	8.8412806581003e-05
433	1546	0.472486573925	5.6633499517445e-15
433	2079	0.638246363887	3.9020977942031e-05
434	127	0.035019847538	3.906095811657e-05
434	231	0.09536801701	1.0577577143592e-115
434	562	0.302649094961	6.1536818763486e-27
434	727	0.322071728193	3.9674349722612e-10
434	883	0.429523206677	2.3106205377001e-09
434	1092	0.433133170572	2.6155609140268e-05
434	1210	0.436619271155	1.302059724522e-17
434	1567	0.4724867799	2.4031621330643e-07
434	1701	0.571359335739	1.1139417170041e-12
434	1933	0.620370249375	0.00014716700377044
434	2082	0.638246363933	3.906095811657e-05
435	130	0.035019850049	4.1257514774539e-05
435	411	0.136548317289	2.4968813937232e-33
435	1083	0.433133161462	2.1040885595078e-05
435	1368	0.449640446084	4.1093117245891e-28
435	1882	0.620370009589	1.6104113031611e-07
435	2085	0.638246366444	4.1257514774539e-05
435	2191	0.652857462648	1.2500609215262e-56
435	2342	0.654914841071	0
435	2514	0.662847942255	8.3884167691471e-14
436	136	0.035019872952	6.6385923219849e-05
436	414	0.136548334681	2.2990590876156e-29
436	1098	0.433133183289	3.4989254436827e-05
436	1371	0.449640455001	1.7632722351104e-26
436	1897	0.620370028315	3.6929172794486e-07
436	2089	0.638246389347	6.6385923219849e-05
436	2194	0.652857485139	1.3060479474303e-45
436	2520	0.662847952076	3.0717798197285e-13
437	139	0.035019876546	7.1271593974837e-05
437	907	0.429523428512	2.25919248269e-05
437	1080	0.433133146901	1.4610402586181e-05
437	1261	0.43661957983	3.2723984926789e-06
437	1392	0.449640629651	3.2858285831976e-11
437	1873	0.620369960972	1.2360458708443e-08
437	2092	0.638246392941	7.1271593974837e-05
437	2239	0.652857909068	1.3582073159527e-06
437	2384	0.654915517985	1.1269026259879e-05
437	2508	0.662847903959	1.9039955048197e-16
438	142	0.035019882736	8.03661834052e-05
438	267	0.095368407545	5.4617632771341e-09
438	601	0.302649469584	2.5911476192773e-06
438	745	0.322071998862	4.0212427173029e-05
438	859	0.42952285592	3.5162908349158e-80
438	1095	0.433133173528	2.8022130411924e-05
438	1198	0.436619068605	8.0218944552239e-89
438	1594	0.472486997312	0.0001161975723869
438	1689	0.571359142018	1.7415035527576e-38
438	1924	0.620370153048	2.061437320197e-05
438	2095	0.638246399131	8.03661834052e-05
439	145	0.035019899318	0.00010943059595265
439	556	0.302648975064	1.0450623755077e-78
439	721	0.322071660985	4.7953834279987e-13
439	901	0.429523328852	1.1547244760289e-06
439	1104	0.433133233002	9.6195805945357e-05
439	1228	0.436619399078	2.7099848903272e-10
439	1564	0.472486772125	1.6898186847923e-07
439	1710	0.571359440201	8.8883134337435e-09
439	2098	0.638246415713	0.00010943059595265
440	148	0.035019899433	0.00010965683662972
440	886	0.429523244345	2.4377163027907e-08
440	1089	0.433133169114	2.5273405723721e-05
440	1234	0.43661944275	6.404514295349e-09
440	1416	0.449640787295	6.0970235883755e-07
440	1737	0.571359626154	1.545189882304e-05
440	1888	0.620370014912	2.0550332728466e-07
440	2101	0.638246415828	0.00010965683662972
440	2257	0.652858057539	7.1811568690577e-05
440	2535	0.662848039918	1.4540756984806e-09
441	149	0.035019899433	45
442	150	0.035019902608	0.0001160912591119
442	249	0.095368243043	3.3084562291544e-17
442	568	0.302649156212	9.9522121312223e-19
442	736	0.322071864104	7.9460196553239e-07
442	1116	0.433133267347	0.00017508914317496
442	1273	0.436619680384	4.569834689803e-05
442	1552	0.472486654589	8.4582296063559e-11
442	2104	0.638246419003	0.0001160912591119
443	153	0.035019928514	0.00018060497504853
443	399	0.13654820863	1.3291421309372e-100
443	1113	0.433133253525	0.00013879105362929
443	1386	0.449640614942	7.5052773412894e-12
443	1921	0.620370131637	1.1943807465334e-05
443	2107	0.638246444909	0.00018060497504853
443	2203	0.652857581434	1.5602985276613e-22
443	2348	0.654914999442	3.4191727675522e-59
443	2544	0.662848106649	8.0475316981647e-08
444	176	0.092373886611	288
445	176	0.092373886611	1
445	178	0.094741886611	0
446	176	0.092373886611	288
446	178	0.094741886611	0
447	178	0.094741886611	1
447	179	0.094933886611	2
447	230	0.095367886611	1
447	230	0.095367886611	0
448	178	0.094741886611	0.002368
449	178	0.094741886611	288
450	234	0.095368045446	1.0450623755077e-78
450	712	0.322071545534	2.9145289668448e-23
450	913	0.429523442054	3.101755202904e-05
450	1252	0.436619549499	1.150812256607e-06
450	1588	0.472486873895	7.0071455749126e-06
450	1719	0.571359527846	6.7803933837055e-07
451	237	0.095368073184	1.2341259559789e-57
451	553	0.302648917412	1.2332803556923e-190
451	718	0.32207163206	8.7471058827234e-15
451	925	0.429523509424	0.00012024711542279
451	1264	0.43661958306	3.6278762552001e-06
451	1573	0.472486805108	6.8909823142105e-07
451	1734	0.571359607312	9.3639763433029e-06
452	240	0.09536811471	3.0312641238998e-39
452	559	0.302649042722	8.9471919988421e-40
452	709	0.322071504255	1.4861030850934e-30
452	892	0.429523257562	4.9981993946945e-08
452	1240	0.436619448454	9.1543564954518e-09
452	1591	0.472486995945	0.00011339054114558
452	1698	0.571359322365	2.1159833929574e-13
453	255	0.095368303849	4.7953834279987e-13
453	565	0.302649118016	2.9145289668448e-23
453	922	0.429523486182	7.8243619861662e-05
453	1279	0.436619708836	8.1176186366187e-05
453	1722	0.571359533637	8.4907507758376e-07
454	264	0.095368371213	4.0170192375618e-10
454	583	0.302649356263	1.7581646813133e-08
454	730	0.32207174196	1.1406469696871e-09
454	871	0.429523009353	4.78859721376e-22
454	1219	0.436619376489	3.6805948200488e-11
454	1683	0.571359048655	6.9321841626924e-105
455	270	0.095368415256	8.8883134337435e-09
455	592	0.302649432519	6.7803933837055e-07
455	739	0.322071865828	8.4907507758376e-07
455	862	0.429522872329	3.8577374963003e-66
455	1213	0.436619282406	1.1935965441519e-16
456	285	0.095368516871	1.1547244760289e-06
456	619	0.302649559691	3.101755202904e-05
456	757	0.322072031337	7.8243619861662e-05
456	1204	0.436619223655	6.5915167614883e-23
456	1686	0.571359085293	3.8577374963003e-66
457	288	0.095368527166	1.6730764843088e-06
457	577	0.302649330041	3.4171303203929e-09
457	733	0.322071862113	7.354878447614e-07
458	297	0.09536858598	1.0339533063834e-05
458	598	0.302649455263	1.5856640810537e-06
458	715	0.322071617672	8.4040193178664e-16
458	919	0.429523454671	4.1064401453406e-05
458	1716	0.57135949903	2.0065559559385e-07
459	300	0.095368613526	2.1008680005313e-05
459	604	0.302649492075	5.2742282739469e-06
459	724	0.322071664331	7.2346564592314e-13
459	910	0.429523436255	2.7136866301525e-05
459	1713	0.571359484359	1.0063940254594e-07
460	309	0.095368692175	0.00010943059595265
460	450	0.136548807804	2.8140701665107e-05
460	1014	0.433132505808	0
460	1255	0.436619560317	1.6986583882398e-06
460	1410	0.449640769396	2.8925982191204e-07
460	1543	0.47248655679	3.1690206342479e-16
460	1843	0.620369687122	1.2794984956091e-30
460	2233	0.652857842803	8.1147004772025e-08
460	2399	0.65491559463	6.6385923219849e-05
460	2538	0.662848068583	9.7863252508695e-09
461	344	0.135474068578	288
462	344	0.1	0
463	344	0.135474068578	1
463	346	0.135922068578	0
464	344	0.135474068578	288
464	346	0.135922068578	0
465	346	0.135922068578	1
465	347	0.136114068578	2
465	398	0.136548068578	1
465	398	0.136548068578	0
466	346	0.135922068578	0.000448
467	346	0.135922068578	288
468	346	0.1	0
469	405	0.136548246298	2.6498698250953e-63
469	1413	0.449640785022	5.5658491010309e-07
469	1936	0.620370251427	0.00015237737717332
469	2215	0.652857727556	2.5145937664332e-11
469	2363	0.65491518631	4.941621372831e-16
469	2562	0.662848269693	2.336221242184e-05
470	408	0.136548314577	5.0423044526901e-34
470	1425	0.449640871745	9.9763861246652e-06
470	2221	0.652857796056	5.7357963165539e-09
470	2375	0.654915316451	1.3999317092463e-09
470	2574	0.66284834154	0.00010477227066274
471	420	0.136548369539	2.2243088984183e-23
471	1422	0.449640868831	9.20728599818e-06
471	2230	0.65285782906	3.9848686133001e-08
471	2372	0.654915243405	1.7348781041222e-12
471	2577	0.662848360445	0.00014618442315363
472	423	0.13654838862	6.7937055293892e-21
472	1434	0.449640947729	5.9859229955393e-05
472	2236	0.652857878507	4.1435625065955e-07
472	2378	0.654915365288	3.0630820508243e-08
473	429	0.13654860162	1.162502534843e-08
473	1380	0.44964048118	1.7780089690874e-22
473	1915	0.620370097995	4.5639056365478e-06
473	2206	0.652857663162	9.4261581623729e-15
473	2357	0.654915082378	3.4226228208604e-29
473	2517	0.662847944737	1.1748145134604e-13
474	441	0.136548728384	3.2001205106324e-06
474	1107	0.433133246037	0.00012179239345137
474	1374	0.449640472598	1.1274200787618e-23
474	1906	0.620370043644	6.8997763385415e-07
474	2212	0.652857722828	1.5754209292496e-11
474	2366	0.654915218678	7.6872738234436e-14
474	2502	0.66284787826	9.7330653760389e-19
475	498	0.301574816229	288
476	498	0.1	0
476	498	0.2	0
476	498	0.3	0
477	498	0.301574816229	1
477	500	0.302022816229	0
478	498	0.301574816229	288
478	500	0.302022816229	0
479	500	0.302022816229	1
479	501	0.302214816229	2
479	552	0.302648816229	1
479	552	0.302648816229	0
480	500	0.302022816229	0.000448
481	500	0.302022816229	288
482	500	0.1	0
482	500	0.2	0
482	500	0.3	0
483	654	0.320997243747	288
484	654	0.1	0
484	654	0.2	0
484	654	0.3	0
485	654	0.320997243747	1
485	656	0.321445243747	0
486	654	0.320997243747	288
486	656	0.321445243747	0
487	656	0.321445243747	1
487	657	0.321637243747	2
487	708	0.322071243747	1
487	708	0.322071243747	0
488	656	0.321445243747	0.000448
489	656	0.321445243747	288
490	656	0.1	0
490	656	0.2	0
490	656	0.3	0
491	804	0.428768698592	288
492	804	0.1	0
492	804	0.2	0
492	804	0.3	0
492	804	0.4	0
493	804	0.428768698592	1
493	806	0.428896698592	0
494	804	0.428768698592	288
494	806	0.428896698592	0
495	806	0.428896698592	1
495	807	0.429088698592	2
495	858	0.429522698592	1
495	858	0.429522698592	0
496	806	0.428896698592	0.000128
497	806	0.428896698592	288
498	806	0.1	0
498	806	0.2	0
498	806	0.3	0
498	806	0.4	0
499	880	0.429523184483	4.4507813830298e-10
499	1110	0.433133249276	0.00012892840768756
499	1231	0.436619441877	6.0578124446218e-09
499	1428	0.449640892666	1.7267167013936e-05
499	1725	0.571359570494	3.1116085964596e-06
499	1918	0.620370106924	5.9718604194069e-06
499	2547	0.662848145287	4.6475020483295e-07
500	959	0.431418434484	288
501	959	0.1	0
501	959	0.2	0
501	959	0.3	0
501	959	0.4	0
502	959	0.431418434484	1
502	961	0.432506434484	0
503	959	0.431418434484	288
503	961	0.432506434484	0
504	961	0.432506434484	1
504	962	0.432698434484	2
504	1013	0.433132434484	1
504	1013	0.433132434484	0
505	961	0.432506434484	0.001088
506	961	0.432506434484	288
507	961	0.1	0
507	961	0.2	0
507	961	0.3	0
507	961	0.4	0
508	1137	0.435864919331	288
509	1137	0.1	0
509	1137	0.2	0
509	1137	0.3	0
509	1137	0.4	0
510	1137	0.435864919331	1
510	1139	0.435992919331	0
511	1137	0.435864919331	288
511	1139	0.435992919331	0
512	1139	0.435992919331	1
512	1140	0.436184919331	2
512	1191	0.436618919331	1
512	1191	0.436618919331	0
513	1139	0.435992919331	0.000128
514	1139	0.435992919331	288
515	1139	0.1	0
515	1139	0.2	0
515	1139	0.3	0
515	1139	0.4	0
516	1307	0.447926173685	288
517	1307	0.1	0
517	1307	0.2	0
517	1307	0.3	0
517	1307	0.4	0
518	1307	0.447926173685	1
518	1309	0.449014173685	0
519	1307	0.447926173685	288
519	1309	0.449014173685	0
520	1309	0.449014173685	1
520	1310	0.449206173685	2
520	1361	0.449640173685	1
520	1361	0.449640173685	0
521	1309	0.449014173685	0.001088
522	1309	0.449014173685	288
523	1309	0.1	0
523	1309	0.2	0
523	1309	0.3	0
523	1309	0.4	0
524	1470	0.470132188406	288
525	1470	0.1	0
525	1470	0.2	0
525	1470	0.3	0
525	1470	0.4	0
526	1470	0.470132188406	1
526	1472	0.471860188406	0
527	1470	0.470132188406	288
527	1472	0.471860188406	0
528	1472	0.471860188406	1
528	1473	0.472052188406	2
528	1524	0.472486188406	1
528	1524	0.472486188406	0
529	1472	0.471860188406	0.001728
530	1472	0.471860188406	288
531	1472	0.1	0
531	1472	0.2	0
531	1472	0.3	0
531	1472	0.4	0
532	1628	0.569964911556	288
533	1628	0.1	0
533	1628	0.2	0
533	1628	0.3	0
533	1628	0.4	0
533	1628	0.5	0
534	1628	0.569964911556	1
534	1630	0.570732911556	0
535	1628	0.569964911556	288
535	1630	0.570732911556	0
536	1630	0.570732911556	1
536	1631	0.570924911556	2
536	1682	0.571358911556	1
536	1682	0.571358911556	0
537	1630	0.570732911556	0.000768
538	1630	0.570732911556	288
539	1630	0.1	0
539	1630	0.2	0
539	1630	0.3	0
539	1630	0.4	0
539	1630	0.5	0
540	1782	0.61801542691	288
541	1782	0.1	0
541	1782	0.2	0
541	1782	0.3	0
541	1782	0.4	0
541	1782	0.5	0
541	1782	0.6	0
542	1782	0.61801542691	1
542	1784	0.61974342691	0
543	1782	0.61801542691	288
543	1784	0.61974342691	0
544	1784	0.61974342691	1
544	1785	0.61993542691	2
544	1836	0.62036942691	1
544	1836	0.62036942691	0
545	1784	0.61974342691	0.001728
546	1784	0.61974342691	288
547	1784	0.1	0
547	1784	0.2	0
547	1784	0.3	0
547	1784	0.4	0
547	1784	0.5	0
547	1784	0.6	0
548	1958	0.1	2880
548	1958	0.2	0
548	1958	0.3	0
548	1958	0.4	0
548	1958	0.5	0
548	1958	0.6	0
549	1960	0.1	2880
549	1960	0.2	0
549	1960	0.3	0
549	1960	0.4	0
549	1960	0.5	0
549	1960	0.6	0
550	2086	0.638246366444	45
551	2088	0.638246376527	45
552	2130	0.652103274362	288
553	2130	0.1	0
553	2130	0.2	0
553	2130	0.3	0
553	2130	0.4	0
553	2130	0.5	0
553	2130	0.6	0
554	2130	0.652103274362	1
554	2132	0.652231274362	0
555	2130	0.652103274362	288
555	2132	0.652231274362	0
556	2132	0.652231274362	1
556	2133	0.652423274362	2
556	2184	0.652857274362	1
556	2184	0.652857274362	0
557	2132	0.652231274362	0.000128
558	2132	0.652231274362	288
559	2132	0.1	0
559	2132	0.2	0
559	2132	0.3	0
559	2132	0.4	0
559	2132	0.5	0
559	2132	0.6	0
560	2287	0.653200815432	288
561	2287	0.1	0
561	2287	0.2	0
561	2287	0.3	0
561	2287	0.4	0
561	2287	0.5	0
561	2287	0.6	0
562	2287	0.653200815432	1
562	2289	0.654288815432	0
563	2287	0.653200815432	288
563	2289	0.654288815432	0
564	2289	0.654288815432	1
564	2290	0.654480815432	2
564	2341	0.654914815432	1
564	2341	0.654914815432	0
565	2289	0.654288815432	0.001088
566	2289	0.654288815432	288
567	2289	0.1	0
567	2289	0.2	0
567	2289	0.3	0
567	2289	0.4	0
567	2289	0.5	0
567	2289	0.6	0
568	2438	0.660173538374	288
569	2438	0.1	0
569	2438	0.2	0
569	2438	0.3	0
569	2438	0.4	0
569	2438	0.5	0
569	2438	0.6	0
570	2438	0.660173538374	1
570	2440	0.662221538374	0
571	2438	0.660173538374	288
571	2440	0.662221538374	0
572	2440	0.662221538374	1
572	2441	0.662413538374	2
572	2492	0.662847538374	1
572	2492	0.662847538374	0
573	2440	0.662221538374	0.002048
574	2440	0.662221538374	288
575	2440	0.1	0
575	2440	0.2	0
575	2440	0.3	0
575	2440	0.4	0
575	2440	0.5	0
575	2440	0.6	0
576	2606	0.703888585558	288
577	2606	0.1	0
577	2606	0.2	0
577	2606	0.3	0
577	2606	0.4	0
577	2606	0.5	0
577	2606	0.6	0
577	2606	0.7	0
578	2606	0.703888585558	1
579	2606	0.703888585558	288
