version 3
run Wireless07-0-20240508-01:36:49-21672
attr configname Wireless07
attr datetime 20240508-01:36:49
attr datetimef 20240508-013649
attr experiment Wireless07
attr inifile omnetpp.ini
attr iterationvars ""
attr iterationvarsd ""
attr iterationvarsf ""
attr measurement ""
attr network WirelessA
attr processid 21672
attr repetition 0
attr replication #0
attr resultdir results
attr runnumber 0
attr seedset 0
config image-path ../../../inet4.5/images
config description "Turning on ACKs in CSMA"
config extends Wireless06
config *.host*.wlan[0].mac.useAck true
config *.host*.wlan[0].radio.energyConsumer.typename StateBasedEpEnergyConsumer
config *.host*.wlan[0].radio.energyConsumer.offPowerConsumption 0mW
config *.host*.wlan[0].radio.energyConsumer.sleepPowerConsumption 1mW
config *.host*.wlan[0].radio.energyConsumer.switchingPowerConsumption 1mW
config *.host*.wlan[0].radio.energyConsumer.receiverIdlePowerConsumption 2mW
config *.host*.wlan[0].radio.energyConsumer.receiverBusyPowerConsumption 5mW
config *.host*.wlan[0].radio.energyConsumer.receiverReceivingPowerConsumption 10mW
config *.host*.wlan[0].radio.energyConsumer.transmitterIdlePowerConsumption 2mW
config *.host*.wlan[0].radio.energyConsumer.transmitterTransmittingPowerConsumption 100mW
config *.host*.energyStorage.typename IdealEpEnergyStorage
config *.host*.wlan[0].radio.displayInterferenceRange false
config *.hostR1.wlan[0].radio.displayCommunicationRange true
config *.visualizer.mediumVisualizer.displaySignals false
config *.hostR*.mobility.typename LinearMobility
config *.hostR*.mobility.speed 12mps
config *.hostR*.mobility.initialMovementHeading 270deg
config *.host*.wlan[0].queue.packetCapacity 10
config *.visualizer.mobilityVisualizer.displayVelocities true
config *.visualizer.mobilityVisualizer.displayMovementTrails true
config *.configurator.addStaticRoutes false
config *.host*.typename AodvRouter
config *.hostB.wlan[0].radio.displayCommunicationRange true
config *.visualizer.dataLinkVisualizer.packetFilter "\"AODV*\""
config description "Using CSMA to better utilize the medium"
config extends Wireless05
config *.host*.wlan[0].typename WirelessInterface
config *.host*.wlan[0].radio.typename UnitDiskRadio
config *.host*.wlan[0].mac.typename CsmaCaMac
config *.host*.wlan[0].mac.ackTimeout 300us
config *.host*.wlan[0].queue.typename DropTailQueue
config *.host*.wlan[0].queue.packetCapacity -1
config description "Taking interference into account"
config extends Wireless04
config *.host*.wlan[0].radio.receiver.ignoreInterference false
config *.host*.wlan[0].radio.transmitter.interferenceRange 500m
config *.hostA.wlan[0].radio.displayInterferenceRange true
config *.visualizer.dataLinkVisualizer.packetFilter "\"\""
config description "Setting up static routing"
config extends Wireless03
config *.host*.forwarding true
config *.hostA.app[0].destAddresses "\"hostE\""
config *.hostE.numApps 1
config *.hostE.app[0].typename SummerUdpApp
config *.hostE.app[0].localPort 5000
config *.hostE.app[0].destPort 5000
config *.hostE.app[0].messageLength 1000B
config *.hostE.app[0].destAddresses "\"hostA\""
config *.hostE.app[0].checkEvenOdd true
config *.hostB.app[0].typename SenderUdpApp
config *.hostB.app[0].destAddresses "\"hostE\""
config *.hostB.app[0].destPort 5000
config *.hostB.app[0].messageLength 1000B
config *.hostB.app[0].sendInterval exponential(12ms)
config *.hostB.app[0].packetName "\"Y-Data\""
config *.hostB.app[0].stopTime 2.0s
config *.hostB.app[0].varName "\"y\""
config *.configurator.config "xmldoc(\"config.xml\")"
config *.configurator.optimizeRoutes true
config *.host*.ipv4.routingTable.netmaskRoutes "\"\""
config *.visualizer.physicalLinkVisualizer.displayLinks true
config *.visualizer.dataLinkVisualizer.displayLinks true
config *.visualizer.networkRouteVisualizer.displayRoutes true
config *.visualizer.*LinkVisualizer.lineShift 0
config *.visualizer.networkRouteVisualizer.lineShift 0
config *.visualizer.networkRouteVisualizer.packetFilter "\"UDPData*\""
config description "Adding more nodes and decreasing the communication range"
config extends Wireless02
config *.host*.wlan[0].radio.transmitter.communicationRange 200m
config *.host*.wlan[0].radio.displayCommunicationRange true
config description "Setting up some animations"
config extends Wireless01
config *.hostA.wlan[0].radio.displayCommunicationRange true
config *.visualizer.sceneVisualizer.descriptionFigure "\"title\""
config *.visualizer.mediumVisualizer.displaySignals true
config *.visualizer.physicalLinkVisualizer.displayLinks true
config *.visualizer.physicalLinkVisualizer.packetFilter "\"UDPData*\""
config description "Two hosts communicating wirelessly"
config network WirelessA
config sim-time-limit 40s
config *.host*.ipv4.arp.typename GlobalArp
config *.hostA.numApps 1
config *.hostA.app[0].typename SenderUdpApp
config *.hostA.app[0].destAddresses "\"hostB\""
config *.hostA.app[0].destPort 5000
config *.hostA.app[0].messageLength 1000B
config *.hostA.app[0].sendInterval exponential(12ms)
config *.hostA.app[0].packetName "\"UDPData\""
config *.hostA.app[0].stopTime 2.0s
config *.hostA.app[0].varName "\"x\""
config *.hostB.numApps 1
config *.hostB.app[0].typename SummerUdpApp
config *.hostB.app[0].localPort 5000
config *.hostB.app[0].destPort 5000
config *.hostB.app[0].messageLength 1000B
config *.hostB.app[0].destAddresses "\"hostA\""
config *.host*.wlan[0].typename AckingWirelessInterface
config *.host*.wlan[0].mac.useAck false
config *.host*.wlan[0].mac.fullDuplex false
config *.host*.wlan[0].radio.transmitter.communicationRange 500m
config *.host*.wlan[0].radio.receiver.ignoreInterference true
config *.host*.wlan[0].mac.headerLength 23B
config *.host*.**.bitrate 1Mbps

vector 0 WirelessA.hostA.udp passedUpPk:vector(count) ETV
attr interpolationmode none
attr recordingmode vector(count)
attr source packetSentToUpper
attr title "packets passed up, count"
vector 1 WirelessA.hostA.udp droppedPkWrongPort:vector(count) ETV
attr interpolationmode none
attr recordingmode vector(count)
attr source packetDropReasonIsNoPortFound(packetDropped)
attr title "packets dropped (wrong port), count"
vector 2 WirelessA.hostA.udp droppedPkBadChecksum:vector(count) ETV
attr interpolationmode none
attr recordingmode vector(count)
attr source packetDropReasonIsIncorrectlyReceived(packetDropped)
attr title "packets dropped (checksum error), count"
vector 3 WirelessA.hostB.udp passedUpPk:vector(count) ETV
attr interpolationmode none
attr recordingmode vector(count)
attr source packetSentToUpper
attr title "packets passed up, count"
vector 4 WirelessA.hostB.udp droppedPkWrongPort:vector(count) ETV
attr interpolationmode none
attr recordingmode vector(count)
attr source packetDropReasonIsNoPortFound(packetDropped)
attr title "packets dropped (wrong port), count"
vector 5 WirelessA.hostB.udp droppedPkBadChecksum:vector(count) ETV
attr interpolationmode none
attr recordingmode vector(count)
attr source packetDropReasonIsIncorrectlyReceived(packetDropped)
attr title "packets dropped (checksum error), count"
vector 6 WirelessA.hostC.udp passedUpPk:vector(count) ETV
attr interpolationmode none
attr recordingmode vector(count)
attr source packetSentToUpper
attr title "packets passed up, count"
vector 7 WirelessA.hostC.udp droppedPkWrongPort:vector(count) ETV
attr interpolationmode none
attr recordingmode vector(count)
attr source packetDropReasonIsNoPortFound(packetDropped)
attr title "packets dropped (wrong port), count"
vector 8 WirelessA.hostC.udp droppedPkBadChecksum:vector(count) ETV
attr interpolationmode none
attr recordingmode vector(count)
attr source packetDropReasonIsIncorrectlyReceived(packetDropped)
attr title "packets dropped (checksum error), count"
vector 9 WirelessA.hostD.udp passedUpPk:vector(count) ETV
attr interpolationmode none
attr recordingmode vector(count)
attr source packetSentToUpper
attr title "packets passed up, count"
vector 10 WirelessA.hostD.udp droppedPkWrongPort:vector(count) ETV
attr interpolationmode none
attr recordingmode vector(count)
attr source packetDropReasonIsNoPortFound(packetDropped)
attr title "packets dropped (wrong port), count"
vector 11 WirelessA.hostD.udp droppedPkBadChecksum:vector(count) ETV
attr interpolationmode none
attr recordingmode vector(count)
attr source packetDropReasonIsIncorrectlyReceived(packetDropped)
attr title "packets dropped (checksum error), count"
vector 12 WirelessA.hostE.udp passedUpPk:vector(count) ETV
attr interpolationmode none
attr recordingmode vector(count)
attr source packetSentToUpper
attr title "packets passed up, count"
vector 13 WirelessA.hostE.udp droppedPkWrongPort:vector(count) ETV
attr interpolationmode none
attr recordingmode vector(count)
attr source packetDropReasonIsNoPortFound(packetDropped)
attr title "packets dropped (wrong port), count"
vector 14 WirelessA.hostE.udp droppedPkBadChecksum:vector(count) ETV
attr interpolationmode none
attr recordingmode vector(count)
attr source packetDropReasonIsIncorrectlyReceived(packetDropped)
attr title "packets dropped (checksum error), count"
vector 15 WirelessA.hostA.energyStorage powerConsumption:vector ETV
attr interpolationmode sample-hold
attr recordingmode vector
attr source powerConsumptionChanged
attr title "Power consumption"
attr unit W
vector 16 WirelessA.hostB.energyStorage powerConsumption:vector ETV
attr interpolationmode sample-hold
attr recordingmode vector
attr source powerConsumptionChanged
attr title "Power consumption"
attr unit W
vector 17 WirelessA.hostC.energyStorage powerConsumption:vector ETV
attr interpolationmode sample-hold
attr recordingmode vector
attr source powerConsumptionChanged
attr title "Power consumption"
attr unit W
vector 18 WirelessA.hostD.energyStorage powerConsumption:vector ETV
attr interpolationmode sample-hold
attr recordingmode vector
attr source powerConsumptionChanged
attr title "Power consumption"
attr unit W
vector 19 WirelessA.hostE.energyStorage powerConsumption:vector ETV
attr interpolationmode sample-hold
attr recordingmode vector
attr source powerConsumptionChanged
attr title "Power consumption"
attr unit W
vector 20 WirelessA.hostA.wlan[0].radio radioMode:vector ETV
attr interpolationmode sample-hold
attr recordingmode vector
attr source radioModeChanged
attr title "Radio mode"
vector 21 WirelessA.hostA.wlan[0].radio.energyConsumer powerConsumption:vector ETV
attr interpolationmode sample-hold
attr recordingmode vector
attr source powerConsumptionChanged
attr title "Power consumption"
attr unit W
vector 22 WirelessA.hostB.wlan[0].radio radioMode:vector ETV
attr interpolationmode sample-hold
attr recordingmode vector
attr source radioModeChanged
attr title "Radio mode"
vector 23 WirelessA.hostB.wlan[0].radio.energyConsumer powerConsumption:vector ETV
attr interpolationmode sample-hold
attr recordingmode vector
attr source powerConsumptionChanged
attr title "Power consumption"
attr unit W
vector 24 WirelessA.hostC.wlan[0].radio radioMode:vector ETV
attr interpolationmode sample-hold
attr recordingmode vector
attr source radioModeChanged
attr title "Radio mode"
vector 25 WirelessA.hostC.wlan[0].radio.energyConsumer powerConsumption:vector ETV
attr interpolationmode sample-hold
attr recordingmode vector
attr source powerConsumptionChanged
attr title "Power consumption"
attr unit W
vector 26 WirelessA.hostD.wlan[0].radio radioMode:vector ETV
attr interpolationmode sample-hold
attr recordingmode vector
attr source radioModeChanged
attr title "Radio mode"
vector 27 WirelessA.hostD.wlan[0].radio.energyConsumer powerConsumption:vector ETV
attr interpolationmode sample-hold
attr recordingmode vector
attr source powerConsumptionChanged
attr title "Power consumption"
attr unit W
vector 28 WirelessA.hostE.wlan[0].radio radioMode:vector ETV
attr interpolationmode sample-hold
attr recordingmode vector
attr source radioModeChanged
attr title "Radio mode"
vector 29 WirelessA.hostE.wlan[0].radio.energyConsumer powerConsumption:vector ETV
attr interpolationmode sample-hold
attr recordingmode vector
attr source powerConsumptionChanged
attr title "Power consumption"
attr unit W
vector 30 WirelessA.hostA.wlan[0].radio receptionState:vector ETV
attr interpolationmode sample-hold
attr recordingmode vector
attr source receptionStateChanged
attr title "Radio reception state"
vector 31 WirelessA.hostB.wlan[0].radio receptionState:vector ETV
attr interpolationmode sample-hold
attr recordingmode vector
attr source receptionStateChanged
attr title "Radio reception state"
vector 32 WirelessA.hostC.wlan[0].radio receptionState:vector ETV
attr interpolationmode sample-hold
attr recordingmode vector
attr source receptionStateChanged
attr title "Radio reception state"
vector 33 WirelessA.hostD.wlan[0].radio receptionState:vector ETV
attr interpolationmode sample-hold
attr recordingmode vector
attr source receptionStateChanged
attr title "Radio reception state"
vector 34 WirelessA.hostE.wlan[0].radio receptionState:vector ETV
attr interpolationmode sample-hold
attr recordingmode vector
attr source receptionStateChanged
attr title "Radio reception state"
vector 35 WirelessA.hostA.app[0] packetSent:vector(packetBytes) ETV
attr interpolationmode none
attr recordingmode vector(packetBytes)
attr source packetSent
attr title "packets sent, packetBytes"
vector 36 WirelessA.hostA.udp packetSent:vector(packetBytes) ETV
attr interpolationmode none
attr recordingmode vector(packetBytes)
attr source packetSent
attr title "packets sent, packetBytes"
vector 37 WirelessA.hostB.app[0] packetSent:vector(packetBytes) ETV
attr interpolationmode none
attr recordingmode vector(packetBytes)
attr source packetSent
attr title "packets sent, packetBytes"
vector 38 WirelessA.hostB.udp packetSent:vector(packetBytes) ETV
attr interpolationmode none
attr recordingmode vector(packetBytes)
attr source packetSent
attr title "packets sent, packetBytes"
vector 39 WirelessA.hostA.wlan[0].queue incomingPacketLengths:vector ETV
attr interpolationmode none
attr recordingmode vector
attr source packetLength(packetPushStarted)
attr title "incoming packet lengths"
attr unit b
vector 40 WirelessA.hostA.wlan[0].queue queueingTime:vector ETV
attr interpolationmode none
attr recordingmode vector
attr source queueingTime(packetPulled)
attr title "queueing times"
attr unit s
vector 41 WirelessA.hostA.wlan[0].queue outgoingPacketLengths:vector ETV
attr interpolationmode none
attr recordingmode vector
attr source packetLength(packetPulled)
attr title "outgoing packet lengths"
attr unit b
vector 42 WirelessA.hostA.wlan[0].queue queueLength:vector ETV
attr autoWarmupFilter false
attr interpolationmode sample-hold
attr recordingmode vector
attr source "warmup(atomic(constant0(packetPushEnded) + count(packetPushStarted) - count(packetPulled) - count(packetRemoved) - count(packetDropped)))"
attr title "queue length"
attr unit pk
vector 43 WirelessA.hostA.wlan[0].queue queueBitLength:vector ETV
attr autoWarmupFilter false
attr interpolationmode sample-hold
attr recordingmode vector
attr source "warmup(atomic(constant0(packetPushEnded) + sum(packetLength(packetPushStarted)) - sum(packetLength(packetPulled)) - sum(packetLength(packetRemoved)) - sum(packetLength(packetDropped))))"
attr title "queue bit length"
attr unit b
vector 44 WirelessA.hostA.energyStorage residualEnergyCapacity:vector ETV
attr interpolationmode linear
attr recordingmode vector
attr source residualEnergyCapacityChanged
attr title "Residual energy capacity"
attr unit J
vector 45 WirelessA.hostA.wlan[0].radio transmissionState:vector ETV
attr interpolationmode sample-hold
attr recordingmode vector
attr source transmissionStateChanged
attr title "Radio transmission state"
vector 46 WirelessA.hostC.energyStorage residualEnergyCapacity:vector ETV
attr interpolationmode linear
attr recordingmode vector
attr source residualEnergyCapacityChanged
attr title "Residual energy capacity"
attr unit J
vector 47 WirelessA.hostB.energyStorage residualEnergyCapacity:vector ETV
attr interpolationmode linear
attr recordingmode vector
attr source residualEnergyCapacityChanged
attr title "Residual energy capacity"
attr unit J
vector 48 WirelessA.hostD.energyStorage residualEnergyCapacity:vector ETV
attr interpolationmode linear
attr recordingmode vector
attr source residualEnergyCapacityChanged
attr title "Residual energy capacity"
attr unit J
vector 49 WirelessA.hostE.energyStorage residualEnergyCapacity:vector ETV
attr interpolationmode linear
attr recordingmode vector
attr source residualEnergyCapacityChanged
attr title "Residual energy capacity"
attr unit J
vector 50 WirelessA.hostC.udp packetReceived:vector(packetBytes) ETV
attr interpolationmode none
attr recordingmode vector(packetBytes)
attr source packetReceived
attr title "packets received, packetBytes"
vector 51 WirelessA.hostB.wlan[0].queue incomingPacketLengths:vector ETV
attr interpolationmode none
attr recordingmode vector
attr source packetLength(packetPushStarted)
attr title "incoming packet lengths"
attr unit b
vector 52 WirelessA.hostB.wlan[0].queue queueingTime:vector ETV
attr interpolationmode none
attr recordingmode vector
attr source queueingTime(packetPulled)
attr title "queueing times"
attr unit s
vector 53 WirelessA.hostB.wlan[0].queue outgoingPacketLengths:vector ETV
attr interpolationmode none
attr recordingmode vector
attr source packetLength(packetPulled)
attr title "outgoing packet lengths"
attr unit b
vector 54 WirelessA.hostB.wlan[0].queue queueLength:vector ETV
attr autoWarmupFilter false
attr interpolationmode sample-hold
attr recordingmode vector
attr source "warmup(atomic(constant0(packetPushEnded) + count(packetPushStarted) - count(packetPulled) - count(packetRemoved) - count(packetDropped)))"
attr title "queue length"
attr unit pk
vector 55 WirelessA.hostB.wlan[0].queue queueBitLength:vector ETV
attr autoWarmupFilter false
attr interpolationmode sample-hold
attr recordingmode vector
attr source "warmup(atomic(constant0(packetPushEnded) + sum(packetLength(packetPushStarted)) - sum(packetLength(packetPulled)) - sum(packetLength(packetRemoved)) - sum(packetLength(packetDropped))))"
attr title "queue bit length"
attr unit b
vector 56 WirelessA.hostB.wlan[0].radio transmissionState:vector ETV
attr interpolationmode sample-hold
attr recordingmode vector
attr source transmissionStateChanged
attr title "Radio transmission state"
vector 57 WirelessA.hostC.udp packetSent:vector(packetBytes) ETV
attr interpolationmode none
attr recordingmode vector(packetBytes)
attr source packetSent
attr title "packets sent, packetBytes"
vector 58 WirelessA.hostC.wlan[0].queue incomingPacketLengths:vector ETV
attr interpolationmode none
attr recordingmode vector
attr source packetLength(packetPushStarted)
attr title "incoming packet lengths"
attr unit b
vector 59 WirelessA.hostC.wlan[0].queue queueingTime:vector ETV
attr interpolationmode none
attr recordingmode vector
attr source queueingTime(packetPulled)
attr title "queueing times"
attr unit s
vector 60 WirelessA.hostC.wlan[0].queue outgoingPacketLengths:vector ETV
attr interpolationmode none
attr recordingmode vector
attr source packetLength(packetPulled)
attr title "outgoing packet lengths"
attr unit b
vector 61 WirelessA.hostC.wlan[0].queue queueLength:vector ETV
attr autoWarmupFilter false
attr interpolationmode sample-hold
attr recordingmode vector
attr source "warmup(atomic(constant0(packetPushEnded) + count(packetPushStarted) - count(packetPulled) - count(packetRemoved) - count(packetDropped)))"
attr title "queue length"
attr unit pk
vector 62 WirelessA.hostC.wlan[0].queue queueBitLength:vector ETV
attr autoWarmupFilter false
attr interpolationmode sample-hold
attr recordingmode vector
attr source "warmup(atomic(constant0(packetPushEnded) + sum(packetLength(packetPushStarted)) - sum(packetLength(packetPulled)) - sum(packetLength(packetRemoved)) - sum(packetLength(packetDropped))))"
attr title "queue bit length"
attr unit b
vector 63 WirelessA.hostC.wlan[0].radio transmissionState:vector ETV
attr interpolationmode sample-hold
attr recordingmode vector
attr source transmissionStateChanged
attr title "Radio transmission state"
vector 64 WirelessA.hostD.udp packetReceived:vector(packetBytes) ETV
attr interpolationmode none
attr recordingmode vector(packetBytes)
attr source packetReceived
attr title "packets received, packetBytes"
vector 65 WirelessA.hostB.udp packetReceived:vector(packetBytes) ETV
attr interpolationmode none
attr recordingmode vector(packetBytes)
attr source packetReceived
attr title "packets received, packetBytes"
vector 66 WirelessA.hostA.udp packetReceived:vector(packetBytes) ETV
attr interpolationmode none
attr recordingmode vector(packetBytes)
attr source packetReceived
attr title "packets received, packetBytes"
vector 67 WirelessA.hostD.udp packetSent:vector(packetBytes) ETV
attr interpolationmode none
attr recordingmode vector(packetBytes)
attr source packetSent
attr title "packets sent, packetBytes"
vector 68 WirelessA.hostD.wlan[0].queue incomingPacketLengths:vector ETV
attr interpolationmode none
attr recordingmode vector
attr source packetLength(packetPushStarted)
attr title "incoming packet lengths"
attr unit b
vector 69 WirelessA.hostD.wlan[0].queue queueingTime:vector ETV
attr interpolationmode none
attr recordingmode vector
attr source queueingTime(packetPulled)
attr title "queueing times"
attr unit s
vector 70 WirelessA.hostD.wlan[0].queue outgoingPacketLengths:vector ETV
attr interpolationmode none
attr recordingmode vector
attr source packetLength(packetPulled)
attr title "outgoing packet lengths"
attr unit b
vector 71 WirelessA.hostD.wlan[0].queue queueLength:vector ETV
attr autoWarmupFilter false
attr interpolationmode sample-hold
attr recordingmode vector
attr source "warmup(atomic(constant0(packetPushEnded) + count(packetPushStarted) - count(packetPulled) - count(packetRemoved) - count(packetDropped)))"
attr title "queue length"
attr unit pk
vector 72 WirelessA.hostD.wlan[0].queue queueBitLength:vector ETV
attr autoWarmupFilter false
attr interpolationmode sample-hold
attr recordingmode vector
attr source "warmup(atomic(constant0(packetPushEnded) + sum(packetLength(packetPushStarted)) - sum(packetLength(packetPulled)) - sum(packetLength(packetRemoved)) - sum(packetLength(packetDropped))))"
attr title "queue bit length"
attr unit b
vector 73 WirelessA.hostD.wlan[0].radio transmissionState:vector ETV
attr interpolationmode sample-hold
attr recordingmode vector
attr source transmissionStateChanged
attr title "Radio transmission state"
vector 74 WirelessA.hostE.udp packetReceived:vector(packetBytes) ETV
attr interpolationmode none
attr recordingmode vector(packetBytes)
attr source packetReceived
attr title "packets received, packetBytes"
vector 75 WirelessA.hostE.udp packetSent:vector(packetBytes) ETV
attr interpolationmode none
attr recordingmode vector(packetBytes)
attr source packetSent
attr title "packets sent, packetBytes"
vector 76 WirelessA.hostE.wlan[0].queue incomingPacketLengths:vector ETV
attr interpolationmode none
attr recordingmode vector
attr source packetLength(packetPushStarted)
attr title "incoming packet lengths"
attr unit b
vector 77 WirelessA.hostE.wlan[0].queue queueingTime:vector ETV
attr interpolationmode none
attr recordingmode vector
attr source queueingTime(packetPulled)
attr title "queueing times"
attr unit s
vector 78 WirelessA.hostE.wlan[0].queue outgoingPacketLengths:vector ETV
attr interpolationmode none
attr recordingmode vector
attr source packetLength(packetPulled)
attr title "outgoing packet lengths"
attr unit b
vector 79 WirelessA.hostE.wlan[0].queue queueLength:vector ETV
attr autoWarmupFilter false
attr interpolationmode sample-hold
attr recordingmode vector
attr source "warmup(atomic(constant0(packetPushEnded) + count(packetPushStarted) - count(packetPulled) - count(packetRemoved) - count(packetDropped)))"
attr title "queue length"
attr unit pk
vector 80 WirelessA.hostE.wlan[0].queue queueBitLength:vector ETV
attr autoWarmupFilter false
attr interpolationmode sample-hold
attr recordingmode vector
attr source "warmup(atomic(constant0(packetPushEnded) + sum(packetLength(packetPushStarted)) - sum(packetLength(packetPulled)) - sum(packetLength(packetRemoved)) - sum(packetLength(packetDropped))))"
attr title "queue bit length"
attr unit b
vector 81 WirelessA.hostE.wlan[0].radio transmissionState:vector ETV
attr interpolationmode sample-hold
attr recordingmode vector
attr source transmissionStateChanged
attr title "Radio transmission state"
vector 82 WirelessA.hostE.wlan[0].mac packetDropNotAddressedToUs:vector(packetBytes) ETV
attr interpolationmode none
attr recordingmode vector(packetBytes)
attr source packetDropReasonIsNotAddressedToUs(packetDropped)
attr title "packet drop: not addressed to us, packetBytes"
vector 83 WirelessA.hostD.wlan[0].mac packetDropNotAddressedToUs:vector(packetBytes) ETV
attr interpolationmode none
attr recordingmode vector(packetBytes)
attr source packetDropReasonIsNotAddressedToUs(packetDropped)
attr title "packet drop: not addressed to us, packetBytes"
vector 84 WirelessA.hostA.wlan[0].mac packetDropNotAddressedToUs:vector(packetBytes) ETV
attr interpolationmode none
attr recordingmode vector(packetBytes)
attr source packetDropReasonIsNotAddressedToUs(packetDropped)
attr title "packet drop: not addressed to us, packetBytes"
vector 85 WirelessA.hostB.wlan[0].mac packetDropNotAddressedToUs:vector(packetBytes) ETV
attr interpolationmode none
attr recordingmode vector(packetBytes)
attr source packetDropReasonIsNotAddressedToUs(packetDropped)
attr title "packet drop: not addressed to us, packetBytes"
vector 86 WirelessA.hostC.wlan[0].mac packetDropNotAddressedToUs:vector(packetBytes) ETV
attr interpolationmode none
attr recordingmode vector(packetBytes)
attr source packetDropReasonIsNotAddressedToUs(packetDropped)
attr title "packet drop: not addressed to us, packetBytes"
vector 87 WirelessA.hostE.app[0] packetSent:vector(packetBytes) ETV
attr interpolationmode none
attr recordingmode vector(packetBytes)
attr source packetSent
attr title "Packets Sent, packetBytes"
0	0	0	0
0	86	0.028914117234	1
0	114	0.031283561288	2
0	168	0.345455540081	3
0	400	0.356009735327	4
0	520	0.361417108069	5
0	875	0.406922192746	6
1	0	0	0
2	0	0	0
3	0	0	0
3	81	0.028914077412	1
3	109	0.031283521466	2
3	163	0.345455500259	3
3	326	0.353692590675	4
3	395	0.356009695505	5
3	727	0.384184202869	6
4	0	0	0
5	0	0	0
6	0	0	0
6	36	0.025151050389	1
6	56	0.027564746232	2
6	138	0.343841301359	3
6	193	0.346715014914	4
6	252	0.349091098724	5
6	271	0.35009799806	6
6	300	0.351227182534	7
6	418	0.357136118164	8
7	0	0	0
8	0	0	0
9	0	0	0
9	76	0.028914012534	1
9	104	0.031283456588	2
9	158	0.345455435381	3
9	218	0.347561502451	4
9	387	0.356009630627	5
9	755	0.385634137898	6
10	0	0	0
11	0	0	0
12	0	0	0
12	194	0.346715014914	1
12	482	0.359433093238	2
12	610	0.36434267538	3
12	776	0.386780625435	4
13	0	0	0
14	0	0	0
15	0	0	0
15	0	0	0
15	0	0	0
15	0	0	0
15	0	0	0.002
15	26	0.024422458152	0
15	26	0.024422458152	0
15	26	0.024422458152	0.002
15	27	0.024422458152	0
15	27	0.024422458152	0.1
15	32	0.025150458152	0.002
15	32	0.025150458152	0
15	32	0.025150458152	0.002
15	32	0.025150458152	0.002
15	32	0.025150458152	0.002
15	49	0.026836946978	0.005
15	58	0.027564946978	0.002
15	70	0.028186117234	0
15	70	0.028186117234	0.01
15	83	0.028914117234	0.002
15	98	0.030555561288	0.01
15	111	0.031283561288	0.002
15	131	0.343113502105	0.005
15	131	0.343113502105	0.005
15	140	0.343841502105	0.002
15	152	0.344727540081	0
15	152	0.344727540081	0.01
15	165	0.345455540081	0.002
15	181	0.345987531413	0.005
15	181	0.345987531413	0.005
15	201	0.346715531413	0.002
15	209	0.346866478067	0.005
15	222	0.347562478067	0.002
15	228	0.347572506487	0.005
15	235	0.347812506487	0.002
15	242	0.348362506487	0
15	242	0.348362506487	0
15	242	0.348362506487	0.002
15	243	0.348362506487	0
15	243	0.348362506487	0.1
15	248	0.349090506487	0.002
15	248	0.349090506487	0
15	248	0.349090506487	0.002
15	248	0.349090506487	0.002
15	248	0.349090506487	0.002
15	264	0.349402514559	0.005
15	274	0.350098514559	0.002
15	279	0.350108590297	0
15	279	0.350108590297	0.01
15	286	0.350348590297	0.002
15	290	0.350498590297	0
15	290	0.350498590297	0
15	290	0.350498590297	0.002
15	290	0.350498590297	0.002
15	291	0.350498590297	0
15	291	0.350498590297	0.1
15	296	0.351226590297	0.002
15	296	0.351226590297	0
15	296	0.351226590297	0.002
15	296	0.351226590297	0.002
15	296	0.351226590297	0.002
15	314	0.352996630497	0
15	314	0.352996630497	0.01
15	329	0.353692630497	0.002
15	335	0.353703343836	0.005
15	335	0.353703343836	0.005
15	342	0.353943343836	0.002
15	350	0.354333343836	0.005
15	358	0.354941343836	0.002
15	365	0.354951735327	0
15	365	0.354951735327	0.01
15	372	0.355191735327	0.002
15	380	0.355281735327	0.01
15	397	0.356009735327	0.002
15	410	0.356440634663	0.005
15	410	0.356440634663	0.005
15	421	0.357136634663	0.002
15	426	0.357146710401	0
15	426	0.357146710401	0.01
15	433	0.357386710401	0.002
15	442	0.357636710401	0.01
15	452	0.358244710401	0.002
15	460	0.358255609737	0.005
15	460	0.358255609737	0.005
15	467	0.358495609737	0.002
15	474	0.358825609737	0.005
15	485	0.359433609737	0.002
15	491	0.359444556391	0.005
15	497	0.359684556391	0.002
15	509	0.360721108069	0
15	509	0.360721108069	0.01
15	517	0.361417108069	0.002
15	524	0.361427108069	0
15	524	0.361427108069	0
15	524	0.361427108069	0.002
15	524	0.361427108069	0.002
15	525	0.361427108069	0
15	525	0.361427108069	0.1
15	530	0.361667108069	0.002
15	530	0.361667108069	0
15	530	0.361667108069	0.002
15	530	0.361667108069	0.002
15	530	0.361667108069	0.002
15	537	0.361717108069	0
15	537	0.361717108069	0
15	537	0.361717108069	0.002
15	538	0.361717108069	0
15	538	0.361717108069	0.1
15	543	0.362325108069	0.002
15	543	0.362325108069	0
15	543	0.362325108069	0.002
15	543	0.362325108069	0.002
15	543	0.362325108069	0.002
15	555	0.362336292543	0
15	555	0.362336292543	0.01
15	562	0.362576292543	0.002
15	570	0.362646292543	0.01
15	579	0.363254292543	0.002
15	587	0.363265191879	0.005
15	587	0.363265191879	0.005
15	594	0.363505191879	0.002
15	602	0.363735191879	0.005
15	618	0.364343191879	0.002
15	624	0.364354138533	0.005
15	630	0.364594138533	0.002
15	639	0.365264138533	0.005
15	658	0.371304138533	0.002
15	664	0.371314166953	0.005
15	672	0.371554166953	0.002
15	680	0.371604166953	0.005
15	696	0.377644166953	0.002
15	701	0.377654242691	0
15	701	0.377654242691	0.01
15	708	0.377894242691	0.002
15	717	0.378144242691	0.01
15	729	0.384184242691	0.002
15	735	0.38419495603	0.005
15	735	0.38419495603	0.005
15	741	0.38443495603	0.002
15	750	0.384907113514	0.005
15	762	0.385635113514	0.002
15	769	0.386085141934	0.005
15	780	0.386781141934	0.002
15	786	0.386792088588	0.005
15	792	0.387032088588	0.002
15	799	0.387542088588	0.005
15	809	0.393582088588	0.002
15	815	0.393592117008	0.005
15	822	0.393832117008	0.002
15	829	0.393942117008	0.005
15	843	0.399982117008	0.002
15	848	0.399992192746	0
15	848	0.399992192746	0.01
15	855	0.400232192746	0.002
15	863	0.400882192746	0.01
15	872	0.406922192746	0.002
15	878	0.406932192746	0
15	878	0.406932192746	0
15	878	0.406932192746	0.002
15	878	0.406932192746	0.002
15	879	0.406932192746	0
15	879	0.406932192746	0.1
15	884	0.407172192746	0.002
15	884	0.407172192746	0
15	884	0.407172192746	0.002
15	884	0.407172192746	0.002
15	884	0.407172192746	0.002
16	0	0	0
16	0	0	0
16	0	0	0
16	0	0	0
16	0	0	0.002
16	29	0.024423211313	0.005
16	38	0.025151211313	0.002
16	46	0.026836193817	0
16	46	0.026836193817	0
16	46	0.026836193817	0.002
16	47	0.026836193817	0
16	47	0.026836193817	0.1
16	52	0.027564193817	0.002
16	52	0.027564193817	0
16	52	0.027564193817	0.002
16	52	0.027564193817	0.002
16	52	0.027564193817	0.002
16	69	0.028186077412	0
16	69	0.028186077412	0.01
16	78	0.028914077412	0.002
16	97	0.030555521466	0.01
16	106	0.031283521466	0.002
16	128	0.343112748944	0
16	128	0.343112748944	0
16	128	0.343112748944	0.002
16	128	0.343112748944	0.002
16	129	0.343112748944	0
16	129	0.343112748944	0.1
16	134	0.343840748944	0.002
16	134	0.343840748944	0
16	134	0.343840748944	0.002
16	134	0.343840748944	0.002
16	134	0.343840748944	0.002
16	151	0.344727500259	0
16	151	0.344727500259	0.01
16	160	0.345455500259	0.002
16	180	0.345987508451	0.005
16	180	0.345987508451	0.005
16	200	0.346715508451	0.002
16	208	0.346866462406	0.005
16	221	0.347562462406	0.002
16	227	0.347572483525	0.005
16	234	0.347812483525	0.002
16	245	0.348363259648	0.005
16	254	0.349091259648	0.002
16	263	0.349402491597	0.005
16	273	0.350098491597	0.002
16	278	0.350108550475	0
16	278	0.350108550475	0.01
16	284	0.350348550475	0.002
16	293	0.350499343458	0.005
16	293	0.350499343458	0.005
16	302	0.351227343458	0.002
16	313	0.352996590675	0
16	313	0.352996590675	0.01
16	323	0.353692590675	0.002
16	332	0.353702590675	0
16	332	0.353702590675	0
16	332	0.353702590675	0.002
16	332	0.353702590675	0.002
16	333	0.353702590675	0
16	333	0.353702590675	0.1
16	339	0.353942590675	0.002
16	339	0.353942590675	0
16	339	0.353942590675	0.002
16	339	0.353942590675	0.002
16	339	0.353942590675	0.002
16	347	0.354332590675	0
16	347	0.354332590675	0
16	347	0.354332590675	0.002
16	348	0.354332590675	0
16	348	0.354332590675	0.1
16	353	0.354940590675	0.002
16	353	0.354940590675	0
16	353	0.354940590675	0.002
16	353	0.354940590675	0.002
16	353	0.354940590675	0.002
16	364	0.354951695505	0
16	364	0.354951695505	0.01
16	370	0.355191695505	0.002
16	379	0.355281695505	0.01
16	392	0.356009695505	0.002
16	409	0.356440611701	0.005
16	409	0.356440611701	0.005
16	420	0.357136611701	0.002
16	425	0.357146670579	0
16	425	0.357146670579	0.01
16	431	0.357386670579	0.002
16	441	0.357636670579	0.01
16	450	0.358244670579	0.002
16	459	0.358255586775	0.005
16	459	0.358255586775	0.005
16	466	0.358495586775	0.002
16	473	0.358825586775	0.005
16	484	0.359433586775	0.002
16	490	0.35944454073	0.005
16	496	0.35968454073	0.002
16	508	0.360721068247	0
16	508	0.360721068247	0.01
16	515	0.361417068247	0.002
16	527	0.36142786123	0.005
16	527	0.36142786123	0.005
16	533	0.36166786123	0.002
16	540	0.36171786123	0.005
16	548	0.36232586123	0.002
16	554	0.362336252721	0
16	554	0.362336252721	0.01
16	560	0.362576252721	0.002
16	569	0.362646252721	0.01
16	577	0.363254252721	0.002
16	586	0.363265168917	0.005
16	586	0.363265168917	0.005
16	593	0.363505168917	0.002
16	601	0.363735168917	0.005
16	617	0.364343168917	0.002
16	623	0.364354122872	0.005
16	629	0.364594122872	0.002
16	638	0.365264122872	0.005
16	657	0.371304122872	0.002
16	663	0.371314143991	0.005
16	671	0.371554143991	0.002
16	679	0.371604143991	0.005
16	695	0.377644143991	0.002
16	700	0.377654202869	0
16	700	0.377654202869	0.01
16	706	0.377894202869	0.002
16	716	0.378144202869	0.01
16	724	0.384184202869	0.002
16	732	0.384194202869	0
16	732	0.384194202869	0
16	732	0.384194202869	0.002
16	732	0.384194202869	0.002
16	733	0.384194202869	0
16	733	0.384194202869	0.1
16	738	0.384434202869	0.002
16	738	0.384434202869	0
16	738	0.384434202869	0.002
16	738	0.384434202869	0.002
16	738	0.384434202869	0.002
16	749	0.384907097853	0.005
16	761	0.385635097853	0.002
16	768	0.386085118972	0.005
16	779	0.386781118972	0.002
16	785	0.386792072927	0.005
16	791	0.387032072927	0.002
16	798	0.387542072927	0.005
16	808	0.393582072927	0.002
16	814	0.393592094046	0.005
16	821	0.393832094046	0.002
16	828	0.393942094046	0.005
16	842	0.399982094046	0.002
16	847	0.399992152924	0
16	847	0.399992152924	0.01
16	853	0.400232152924	0.002
16	862	0.400882152924	0.01
16	870	0.406922152924	0.002
16	881	0.406932945907	0.005
16	881	0.406932945907	0.005
16	887	0.407172945907	0.002
17	0	0	0
17	0	0	0
17	0	0	0
17	0	0	0
17	0	0	0.002
17	28	0.024423050389	0
17	28	0.024423050389	0.01
17	33	0.025151050389	0.002
17	48	0.026836746232	0.01
17	53	0.027564746232	0.002
17	66	0.028185524997	0
17	66	0.028185524997	0
17	66	0.028185524997	0.002
17	66	0.028185524997	0.002
17	67	0.028185524997	0
17	67	0.028185524997	0.1
17	72	0.028913524997	0.002
17	72	0.028913524997	0
17	72	0.028913524997	0.002
17	72	0.028913524997	0.002
17	72	0.028913524997	0.002
17	94	0.030554969051	0
17	94	0.030554969051	0
17	94	0.030554969051	0.002
17	95	0.030554969051	0
17	95	0.030554969051	0.1
17	100	0.031282969051	0.002
17	100	0.031282969051	0
17	100	0.031282969051	0.002
17	100	0.031282969051	0.002
17	100	0.031282969051	0.002
17	130	0.343113301359	0
17	130	0.343113301359	0.01
17	135	0.343841301359	0.002
17	148	0.344726947844	0
17	148	0.344726947844	0
17	148	0.344726947844	0.002
17	148	0.344726947844	0.002
17	149	0.344726947844	0
17	149	0.344726947844	0.1
17	154	0.345454947844	0.002
17	154	0.345454947844	0
17	154	0.345454947844	0.002
17	154	0.345454947844	0.002
17	154	0.345454947844	0.002
17	178	0.345987014914	0
17	178	0.345987014914	0.01
17	187	0.346715014914	0.002
17	207	0.346865989989	0.005
17	207	0.346865989989	0.005
17	220	0.347561989989	0.002
17	225	0.347571989988	0
17	225	0.347571989988	0.01
17	230	0.347811989988	0.002
17	244	0.348363098724	0.01
17	249	0.349091098724	0.002
17	261	0.34940199806	0.01
17	266	0.35009799806	0.002
17	275	0.35010799806	0
17	275	0.35010799806	0
17	275	0.35010799806	0.002
17	275	0.35010799806	0.002
17	276	0.35010799806	0
17	276	0.35010799806	0.1
17	281	0.35034799806	0.002
17	281	0.35034799806	0
17	281	0.35034799806	0.002
17	281	0.35034799806	0.002
17	281	0.35034799806	0.002
17	292	0.350499182534	0
17	292	0.350499182534	0.01
17	297	0.351227182534	0.002
17	310	0.35299603826	0
17	310	0.35299603826	0
17	310	0.35299603826	0.002
17	310	0.35299603826	0.002
17	311	0.35299603826	0
17	311	0.35299603826	0.1
17	320	0.35369203826	0.002
17	320	0.35369203826	0
17	320	0.35369203826	0.002
17	320	0.35369203826	0.002
17	320	0.35369203826	0.002
17	334	0.35370314309	0
17	334	0.35370314309	0.01
17	340	0.35394314309	0.002
17	349	0.35433314309	0.01
17	354	0.35494114309	0.002
17	361	0.35495114309	0
17	361	0.35495114309	0
17	361	0.35495114309	0.002
17	361	0.35495114309	0.002
17	362	0.35495114309	0
17	362	0.35495114309	0.1
17	367	0.35519114309	0.002
17	367	0.35519114309	0
17	367	0.35519114309	0.002
17	367	0.35519114309	0.002
17	367	0.35519114309	0.002
17	376	0.35528114309	0
17	376	0.35528114309	0
17	376	0.35528114309	0.002
17	377	0.35528114309	0
17	377	0.35528114309	0.1
17	383	0.35600914309	0.002
17	383	0.35600914309	0
17	383	0.35600914309	0.002
17	383	0.35600914309	0.002
17	383	0.35600914309	0.002
17	407	0.356440118164	0
17	407	0.356440118164	0.01
17	413	0.357136118164	0.002
17	422	0.357146118164	0
17	422	0.357146118164	0
17	422	0.357146118164	0.002
17	422	0.357146118164	0.002
17	423	0.357146118164	0
17	423	0.357146118164	0.1
17	428	0.357386118164	0.002
17	428	0.357386118164	0
17	428	0.357386118164	0.002
17	428	0.357386118164	0.002
17	428	0.357386118164	0.002
17	438	0.357636118164	0
17	438	0.357636118164	0
17	438	0.357636118164	0.002
17	439	0.357636118164	0
17	439	0.357636118164	0.1
17	445	0.358244118164	0.002
17	445	0.358244118164	0
17	445	0.358244118164	0.002
17	445	0.358244118164	0.002
17	445	0.358244118164	0.002
17	457	0.358255093238	0
17	457	0.358255093238	0.01
17	462	0.358495093238	0.002
17	471	0.358825093238	0.01
17	477	0.359433093238	0.002
17	489	0.359444068313	0.005
17	489	0.359444068313	0.005
17	495	0.359684068313	0.002
17	505	0.360720515832	0
17	505	0.360720515832	0
17	505	0.360720515832	0.002
17	506	0.360720515832	0
17	506	0.360720515832	0.1
17	512	0.361416515832	0.002
17	512	0.361416515832	0
17	512	0.361416515832	0.002
17	512	0.361416515832	0.002
17	512	0.361416515832	0.002
17	526	0.361427700306	0
17	526	0.361427700306	0.01
17	531	0.361667700306	0.002
17	539	0.361717700306	0.01
17	544	0.362325700306	0.002
17	551	0.362335700306	0
17	551	0.362335700306	0
17	551	0.362335700306	0.002
17	551	0.362335700306	0.002
17	552	0.362335700306	0
17	552	0.362335700306	0.1
17	557	0.362575700306	0.002
17	557	0.362575700306	0
17	557	0.362575700306	0.002
17	557	0.362575700306	0.002
17	557	0.362575700306	0.002
17	566	0.362645700306	0
17	566	0.362645700306	0
17	566	0.362645700306	0.002
17	567	0.362645700306	0
17	567	0.362645700306	0.1
17	572	0.363253700306	0.002
17	572	0.363253700306	0
17	572	0.363253700306	0.002
17	572	0.363253700306	0.002
17	572	0.363253700306	0.002
17	584	0.36326467538	0
17	584	0.36326467538	0.01
17	589	0.36350467538	0.002
17	599	0.36373467538	0.01
17	605	0.36434267538	0.002
17	622	0.364353650455	0.005
17	622	0.364353650455	0.005
17	628	0.364593650455	0.002
17	637	0.365263650455	0.005
17	656	0.371303650455	0.002
17	661	0.371313650454	0
17	661	0.371313650454	0.01
17	667	0.371553650454	0.002
17	677	0.371603650454	0.01
17	689	0.377643650454	0.002
17	697	0.377653650454	0
17	697	0.377653650454	0
17	697	0.377653650454	0.002
17	697	0.377653650454	0.002
17	698	0.377653650454	0
17	698	0.377653650454	0.1
17	703	0.377893650454	0.002
17	703	0.377893650454	0
17	703	0.377893650454	0.002
17	703	0.377893650454	0.002
17	703	0.377893650454	0.002
17	713	0.378143650454	0
17	713	0.378143650454	0
17	713	0.378143650454	0.002
17	714	0.378143650454	0
17	714	0.378143650454	0.1
17	721	0.384183650454	0.002
17	721	0.384183650454	0
17	721	0.384183650454	0.002
17	721	0.384183650454	0.002
17	721	0.384183650454	0.002
17	734	0.384194755284	0
17	734	0.384194755284	0.01
17	739	0.384434755284	0.002
17	748	0.384906625436	0.005
17	748	0.384906625436	0.005
17	760	0.385634625436	0.002
17	766	0.386084625435	0
17	766	0.386084625435	0.01
17	771	0.386780625435	0.002
17	784	0.38679160051	0.005
17	784	0.38679160051	0.005
17	790	0.38703160051	0.002
17	797	0.38754160051	0.005
17	807	0.39358160051	0.002
17	812	0.393591600509	0
17	812	0.393591600509	0.01
17	817	0.393831600509	0.002
17	826	0.393941600509	0.01
17	836	0.399981600509	0.002
17	844	0.399991600509	0
17	844	0.399991600509	0
17	844	0.399991600509	0.002
17	844	0.399991600509	0.002
17	845	0.399991600509	0
17	845	0.399991600509	0.1
17	850	0.400231600509	0.002
17	850	0.400231600509	0
17	850	0.400231600509	0.002
17	850	0.400231600509	0.002
17	850	0.400231600509	0.002
17	859	0.400881600509	0
17	859	0.400881600509	0
17	859	0.400881600509	0.002
17	860	0.400881600509	0
17	860	0.400881600509	0.1
17	867	0.406921600509	0.002
17	867	0.406921600509	0
17	867	0.406921600509	0.002
17	867	0.406921600509	0.002
17	867	0.406921600509	0.002
17	880	0.406932784983	0
17	880	0.406932784983	0.01
17	885	0.407172784983	0.002
18	0	0	0
18	0	0	0
18	0	0	0
18	0	0	0
18	0	0	0.002
18	30	0.024423462188	0.005
18	39	0.025151462188	0.002
18	50	0.026837174891	0.005
18	59	0.027565174891	0.002
18	68	0.028186012534	0
18	68	0.028186012534	0.01
18	73	0.028914012534	0.002
18	96	0.030555456588	0.01
18	101	0.031283456588	0.002
18	132	0.343113730018	0.005
18	132	0.343113730018	0.005
18	141	0.343841730018	0.002
18	150	0.344727435381	0
18	150	0.344727435381	0.01
18	155	0.345455435381	0.002
18	176	0.345986527377	0
18	176	0.345986527377	0
18	176	0.345986527377	0.002
18	176	0.345986527377	0.002
18	177	0.345986527377	0
18	177	0.345986527377	0.1
18	186	0.346714527377	0.002
18	186	0.346714527377	0
18	186	0.346714527377	0.002
18	186	0.346714527377	0.002
18	186	0.346714527377	0.002
18	206	0.346865502451	0
18	206	0.346865502451	0.01
18	215	0.347561502451	0.002
18	223	0.347571502451	0
18	223	0.347571502451	0
18	223	0.347571502451	0.002
18	223	0.347571502451	0.002
18	224	0.347571502451	0
18	224	0.347571502451	0.1
18	229	0.347811502451	0.002
18	229	0.347811502451	0
18	229	0.347811502451	0.002
18	229	0.347811502451	0.002
18	229	0.347811502451	0.002
18	246	0.348363510523	0.005
18	255	0.349091510523	0.002
18	259	0.349401510523	0
18	259	0.349401510523	0
18	259	0.349401510523	0.002
18	260	0.349401510523	0
18	260	0.349401510523	0.1
18	265	0.350097510523	0.002
18	265	0.350097510523	0
18	265	0.350097510523	0.002
18	265	0.350097510523	0.002
18	265	0.350097510523	0.002
18	277	0.350108485597	0
18	277	0.350108485597	0.01
18	282	0.350348485597	0.002
18	294	0.350499594333	0.005
18	294	0.350499594333	0.005
18	303	0.351227594333	0.002
18	312	0.352996525797	0
18	312	0.352996525797	0.01
18	321	0.353692525797	0.002
18	336	0.353703571749	0.005
18	336	0.353703571749	0.005
18	343	0.353943571749	0.002
18	351	0.354333571749	0.005
18	359	0.354941571749	0.002
18	363	0.354951630627	0
18	363	0.354951630627	0.01
18	368	0.355191630627	0.002
18	378	0.355281630627	0.01
18	384	0.356009630627	0.002
18	405	0.356439630627	0
18	405	0.356439630627	0
18	405	0.356439630627	0.002
18	405	0.356439630627	0.002
18	406	0.356439630627	0
18	406	0.356439630627	0.1
18	412	0.357135630627	0.002
18	412	0.357135630627	0
18	412	0.357135630627	0.002
18	412	0.357135630627	0.002
18	412	0.357135630627	0.002
18	424	0.357146605701	0
18	424	0.357146605701	0.01
18	429	0.357386605701	0.002
18	440	0.357636605701	0.01
18	446	0.358244605701	0.002
18	455	0.358254605701	0
18	455	0.358254605701	0
18	455	0.358254605701	0.002
18	455	0.358254605701	0.002
18	456	0.358254605701	0
18	456	0.358254605701	0.1
18	461	0.358494605701	0.002
18	461	0.358494605701	0
18	461	0.358494605701	0.002
18	461	0.358494605701	0.002
18	461	0.358494605701	0.002
18	469	0.358824605701	0
18	469	0.358824605701	0
18	469	0.358824605701	0.002
18	470	0.358824605701	0
18	470	0.358824605701	0.1
18	476	0.359432605701	0.002
18	476	0.359432605701	0
18	476	0.359432605701	0.002
18	476	0.359432605701	0.002
18	476	0.359432605701	0.002
18	488	0.359443580775	0
18	488	0.359443580775	0.01
18	493	0.359683580775	0.002
18	507	0.360721003369	0.01
18	513	0.361417003369	0.002
18	528	0.361428112105	0.005
18	528	0.361428112105	0.005
18	534	0.361668112105	0.002
18	541	0.361718112105	0.005
18	549	0.362326112105	0.002
18	553	0.362336187843	0
18	553	0.362336187843	0.01
18	558	0.362576187843	0.002
18	568	0.362646187843	0.01
18	573	0.363254187843	0.002
18	582	0.363264187843	0
18	582	0.363264187843	0
18	582	0.363264187843	0.002
18	582	0.363264187843	0.002
18	583	0.363264187843	0
18	583	0.363264187843	0.1
18	588	0.363504187843	0.002
18	588	0.363504187843	0
18	588	0.363504187843	0.002
18	588	0.363504187843	0.002
18	588	0.363504187843	0.002
18	597	0.363734187843	0
18	597	0.363734187843	0
18	597	0.363734187843	0.002
18	598	0.363734187843	0
18	598	0.363734187843	0.1
18	604	0.364342187843	0.002
18	604	0.364342187843	0
18	604	0.364342187843	0.002
18	604	0.364342187843	0.002
18	604	0.364342187843	0.002
18	621	0.364353162917	0
18	621	0.364353162917	0.01
18	626	0.364593162917	0.002
18	636	0.365263162917	0.01
18	652	0.371303162917	0.002
18	659	0.371313162917	0
18	659	0.371313162917	0
18	659	0.371313162917	0.002
18	659	0.371313162917	0.002
18	660	0.371313162917	0
18	660	0.371313162917	0.1
18	666	0.371553162917	0.002
18	666	0.371553162917	0
18	666	0.371553162917	0.002
18	666	0.371553162917	0.002
18	666	0.371553162917	0.002
18	674	0.371603162917	0
18	674	0.371603162917	0
18	674	0.371603162917	0.002
18	675	0.371603162917	0
18	675	0.371603162917	0.1
18	688	0.377643162917	0.002
18	688	0.377643162917	0
18	688	0.377643162917	0.002
18	688	0.377643162917	0.002
18	688	0.377643162917	0.002
18	699	0.377654137991	0
18	699	0.377654137991	0.01
18	704	0.377894137991	0.002
18	715	0.378144137991	0.01
18	722	0.384184137991	0.002
18	736	0.384195183943	0.005
18	736	0.384195183943	0.005
18	742	0.384435183943	0.002
18	747	0.384906137898	0
18	747	0.384906137898	0.01
18	752	0.385634137898	0.002
18	764	0.386084137898	0
18	764	0.386084137898	0
18	764	0.386084137898	0.002
18	764	0.386084137898	0.002
18	765	0.386084137898	0
18	765	0.386084137898	0.1
18	770	0.386780137898	0.002
18	770	0.386780137898	0
18	770	0.386780137898	0.002
18	770	0.386780137898	0.002
18	770	0.386780137898	0.002
18	783	0.386791112972	0
18	783	0.386791112972	0.01
18	788	0.387031112972	0.002
18	796	0.387541112972	0.01
18	803	0.393581112972	0.002
18	810	0.393591112972	0
18	810	0.393591112972	0
18	810	0.393591112972	0.002
18	810	0.393591112972	0.002
18	811	0.393591112972	0
18	811	0.393591112972	0.1
18	816	0.393831112972	0.002
18	816	0.393831112972	0
18	816	0.393831112972	0.002
18	816	0.393831112972	0.002
18	816	0.393831112972	0.002
18	824	0.393941112972	0
18	824	0.393941112972	0
18	824	0.393941112972	0.002
18	825	0.393941112972	0
18	825	0.393941112972	0.1
18	835	0.399981112972	0.002
18	835	0.399981112972	0
18	835	0.399981112972	0.002
18	835	0.399981112972	0.002
18	835	0.399981112972	0.002
18	846	0.399992088046	0
18	846	0.399992088046	0.01
18	851	0.400232088046	0.002
18	861	0.400882088046	0.01
18	868	0.406922088046	0.002
18	882	0.406933196782	0.005
18	882	0.406933196782	0.005
18	888	0.407173196782	0.002
19	0	0	0
19	0	0	0
19	0	0	0
19	0	0	0
19	0	0	0.002
19	31	0.024423921305	0.005
19	40	0.025151921305	0.002
19	51	0.026837641309	0.005
19	60	0.027565641309	0.002
19	71	0.028186500072	0.005
19	88	0.028914500072	0.002
19	99	0.030555944126	0.005
19	116	0.031283944126	0.002
19	133	0.343114196436	0.005
19	142	0.343842196436	0.002
19	153	0.344727922919	0.005
19	170	0.345455922919	0.002
19	179	0.345987014914	0
19	179	0.345987014914	0.01
19	188	0.346715014914	0.002
19	204	0.346865014914	0
19	204	0.346865014914	0
19	204	0.346865014914	0.002
19	204	0.346865014914	0.002
19	205	0.346865014914	0
19	205	0.346865014914	0.1
19	214	0.347561014914	0.002
19	214	0.347561014914	0
19	214	0.347561014914	0.002
19	214	0.347561014914	0.002
19	214	0.347561014914	0.002
19	226	0.347571989988	0
19	226	0.347571989988	0.01
19	231	0.347811989988	0.002
19	247	0.34836396964	0.005
19	247	0.34836396964	0.005
19	256	0.34909196964	0.002
19	262	0.34940199806	0
19	262	0.34940199806	0.01
19	267	0.35009799806	0.002
19	280	0.350108973135	0.005
19	280	0.350108973135	0.005
19	288	0.350348973135	0.002
19	295	0.35050005345	0.005
19	304	0.35122805345	0.002
19	315	0.352997013335	0.005
19	331	0.353693013335	0.002
19	337	0.353704038167	0.005
19	344	0.353944038167	0.002
19	352	0.354334038167	0.005
19	360	0.354942038167	0.002
19	366	0.354952118165	0.005
19	374	0.355192118165	0.002
19	381	0.355282118165	0.005
19	402	0.356010118165	0.002
19	408	0.356440118164	0
19	408	0.356440118164	0.01
19	414	0.357136118164	0.002
19	427	0.357147093239	0.005
19	427	0.357147093239	0.005
19	435	0.357387093239	0.002
19	443	0.357637093239	0.005
19	454	0.358245093239	0.002
19	458	0.358255093238	0
19	458	0.358255093238	0.01
19	463	0.358495093238	0.002
19	472	0.358825093238	0.01
19	478	0.359433093238	0.002
19	486	0.359443093238	0
19	486	0.359443093238	0
19	486	0.359443093238	0.002
19	486	0.359443093238	0.002
19	487	0.359443093238	0
19	487	0.359443093238	0.1
19	492	0.359683093238	0.002
19	492	0.359683093238	0
19	492	0.359683093238	0.002
19	492	0.359683093238	0.002
19	492	0.359683093238	0.002
19	510	0.360721490907	0.005
19	523	0.361417490907	0.002
19	529	0.361428571222	0.005
19	535	0.361668571222	0.002
19	542	0.361718571222	0.005
19	550	0.362326571222	0.002
19	556	0.362336675381	0.005
19	564	0.362576675381	0.002
19	571	0.362646675381	0.005
19	581	0.363254675381	0.002
19	585	0.36326467538	0
19	585	0.36326467538	0.01
19	590	0.36350467538	0.002
19	600	0.36373467538	0.01
19	606	0.36434267538	0.002
19	619	0.36435267538	0
19	619	0.36435267538	0
19	619	0.36435267538	0.002
19	619	0.36435267538	0.002
19	620	0.36435267538	0
19	620	0.36435267538	0.1
19	625	0.36459267538	0.002
19	625	0.36459267538	0
19	625	0.36459267538	0.002
19	625	0.36459267538	0.002
19	625	0.36459267538	0.002
19	634	0.36526267538	0
19	634	0.36526267538	0
19	634	0.36526267538	0.002
19	635	0.36526267538	0
19	635	0.36526267538	0.1
19	651	0.37130267538	0.002
19	651	0.37130267538	0
19	651	0.37130267538	0.002
19	651	0.37130267538	0.002
19	651	0.37130267538	0.002
19	662	0.371313650454	0
19	662	0.371313650454	0.01
19	668	0.371553650454	0.002
19	678	0.371603650454	0.01
19	690	0.377643650454	0.002
19	702	0.377654625529	0.005
19	702	0.377654625529	0.005
19	710	0.377894625529	0.002
19	718	0.378144625529	0.005
19	731	0.384184625529	0.002
19	737	0.384195650361	0.005
19	743	0.384435650361	0.002
19	745	0.384905650361	0
19	745	0.384905650361	0
19	745	0.384905650361	0.002
19	746	0.384905650361	0
19	746	0.384905650361	0.1
19	751	0.385633650361	0.002
19	751	0.385633650361	0
19	751	0.385633650361	0.002
19	751	0.385633650361	0.002
19	751	0.385633650361	0.002
19	767	0.386084625435	0
19	767	0.386084625435	0.01
19	772	0.386780625435	0.002
19	781	0.386790625435	0
19	781	0.386790625435	0
19	781	0.386790625435	0.002
19	781	0.386790625435	0.002
19	782	0.386790625435	0
19	782	0.386790625435	0.1
19	787	0.387030625435	0.002
19	787	0.387030625435	0
19	787	0.387030625435	0.002
19	787	0.387030625435	0.002
19	787	0.387030625435	0.002
19	794	0.387540625435	0
19	794	0.387540625435	0
19	794	0.387540625435	0.002
19	795	0.387540625435	0
19	795	0.387540625435	0.1
19	802	0.393580625435	0.002
19	802	0.393580625435	0
19	802	0.393580625435	0.002
19	802	0.393580625435	0.002
19	802	0.393580625435	0.002
19	813	0.393591600509	0
19	813	0.393591600509	0.01
19	818	0.393831600509	0.002
19	827	0.393941600509	0.01
19	837	0.399981600509	0.002
19	849	0.399992575584	0.005
19	849	0.399992575584	0.005
19	857	0.400232575584	0.002
19	864	0.400882575584	0.005
19	877	0.406922575584	0.002
19	883	0.406933655899	0.005
19	889	0.407173655899	0.002
20	0	0	0
20	0	0	0
20	0	0	2
20	26	0.024422458152	3
20	32	0.025150458152	2
20	242	0.348362506487	3
20	248	0.349090506487	2
20	290	0.350498590297	3
20	296	0.351226590297	2
20	524	0.361427108069	3
20	530	0.361667108069	2
20	537	0.361717108069	3
20	543	0.362325108069	2
20	878	0.406932192746	3
20	884	0.407172192746	2
21	0	0	0
21	0	0	0
21	0	0	0
21	0	0	0.002
21	26	0.024422458152	0
21	26	0.024422458152	0
21	26	0.024422458152	0.002
21	27	0.024422458152	0
21	27	0.024422458152	0.1
21	32	0.025150458152	0.002
21	32	0.025150458152	0
21	32	0.025150458152	0.002
21	32	0.025150458152	0.002
21	32	0.025150458152	0.002
21	49	0.026836946978	0.005
21	58	0.027564946978	0.002
21	70	0.028186117234	0
21	70	0.028186117234	0.01
21	83	0.028914117234	0.002
21	98	0.030555561288	0.01
21	111	0.031283561288	0.002
21	131	0.343113502105	0.005
21	131	0.343113502105	0.005
21	140	0.343841502105	0.002
21	152	0.344727540081	0
21	152	0.344727540081	0.01
21	165	0.345455540081	0.002
21	181	0.345987531413	0.005
21	181	0.345987531413	0.005
21	201	0.346715531413	0.002
21	209	0.346866478067	0.005
21	222	0.347562478067	0.002
21	228	0.347572506487	0.005
21	235	0.347812506487	0.002
21	242	0.348362506487	0
21	242	0.348362506487	0
21	242	0.348362506487	0.002
21	243	0.348362506487	0
21	243	0.348362506487	0.1
21	248	0.349090506487	0.002
21	248	0.349090506487	0
21	248	0.349090506487	0.002
21	248	0.349090506487	0.002
21	248	0.349090506487	0.002
21	264	0.349402514559	0.005
21	274	0.350098514559	0.002
21	279	0.350108590297	0
21	279	0.350108590297	0.01
21	286	0.350348590297	0.002
21	290	0.350498590297	0
21	290	0.350498590297	0
21	290	0.350498590297	0.002
21	290	0.350498590297	0.002
21	291	0.350498590297	0
21	291	0.350498590297	0.1
21	296	0.351226590297	0.002
21	296	0.351226590297	0
21	296	0.351226590297	0.002
21	296	0.351226590297	0.002
21	296	0.351226590297	0.002
21	314	0.352996630497	0
21	314	0.352996630497	0.01
21	329	0.353692630497	0.002
21	335	0.353703343836	0.005
21	335	0.353703343836	0.005
21	342	0.353943343836	0.002
21	350	0.354333343836	0.005
21	358	0.354941343836	0.002
21	365	0.354951735327	0
21	365	0.354951735327	0.01
21	372	0.355191735327	0.002
21	380	0.355281735327	0.01
21	397	0.356009735327	0.002
21	410	0.356440634663	0.005
21	410	0.356440634663	0.005
21	421	0.357136634663	0.002
21	426	0.357146710401	0
21	426	0.357146710401	0.01
21	433	0.357386710401	0.002
21	442	0.357636710401	0.01
21	452	0.358244710401	0.002
21	460	0.358255609737	0.005
21	460	0.358255609737	0.005
21	467	0.358495609737	0.002
21	474	0.358825609737	0.005
21	485	0.359433609737	0.002
21	491	0.359444556391	0.005
21	497	0.359684556391	0.002
21	509	0.360721108069	0
21	509	0.360721108069	0.01
21	517	0.361417108069	0.002
21	524	0.361427108069	0
21	524	0.361427108069	0
21	524	0.361427108069	0.002
21	524	0.361427108069	0.002
21	525	0.361427108069	0
21	525	0.361427108069	0.1
21	530	0.361667108069	0.002
21	530	0.361667108069	0
21	530	0.361667108069	0.002
21	530	0.361667108069	0.002
21	530	0.361667108069	0.002
21	537	0.361717108069	0
21	537	0.361717108069	0
21	537	0.361717108069	0.002
21	538	0.361717108069	0
21	538	0.361717108069	0.1
21	543	0.362325108069	0.002
21	543	0.362325108069	0
21	543	0.362325108069	0.002
21	543	0.362325108069	0.002
21	543	0.362325108069	0.002
21	555	0.362336292543	0
21	555	0.362336292543	0.01
21	562	0.362576292543	0.002
21	570	0.362646292543	0.01
21	579	0.363254292543	0.002
21	587	0.363265191879	0.005
21	587	0.363265191879	0.005
21	594	0.363505191879	0.002
21	602	0.363735191879	0.005
21	618	0.364343191879	0.002
21	624	0.364354138533	0.005
21	630	0.364594138533	0.002
21	639	0.365264138533	0.005
21	658	0.371304138533	0.002
21	664	0.371314166953	0.005
21	672	0.371554166953	0.002
21	680	0.371604166953	0.005
21	696	0.377644166953	0.002
21	701	0.377654242691	0
21	701	0.377654242691	0.01
21	708	0.377894242691	0.002
21	717	0.378144242691	0.01
21	729	0.384184242691	0.002
21	735	0.38419495603	0.005
21	735	0.38419495603	0.005
21	741	0.38443495603	0.002
21	750	0.384907113514	0.005
21	762	0.385635113514	0.002
21	769	0.386085141934	0.005
21	780	0.386781141934	0.002
21	786	0.386792088588	0.005
21	792	0.387032088588	0.002
21	799	0.387542088588	0.005
21	809	0.393582088588	0.002
21	815	0.393592117008	0.005
21	822	0.393832117008	0.002
21	829	0.393942117008	0.005
21	843	0.399982117008	0.002
21	848	0.399992192746	0
21	848	0.399992192746	0.01
21	855	0.400232192746	0.002
21	863	0.400882192746	0.01
21	872	0.406922192746	0.002
21	878	0.406932192746	0
21	878	0.406932192746	0
21	878	0.406932192746	0.002
21	878	0.406932192746	0.002
21	879	0.406932192746	0
21	879	0.406932192746	0.1
21	884	0.407172192746	0.002
21	884	0.407172192746	0
21	884	0.407172192746	0.002
21	884	0.407172192746	0.002
21	884	0.407172192746	0.002
22	0	0	0
22	0	0	0
22	0	0	2
22	46	0.026836193817	3
22	52	0.027564193817	2
22	128	0.343112748944	3
22	134	0.343840748944	2
22	332	0.353702590675	3
22	339	0.353942590675	2
22	347	0.354332590675	3
22	353	0.354940590675	2
22	732	0.384194202869	3
22	738	0.384434202869	2
23	0	0	0
23	0	0	0
23	0	0	0
23	0	0	0.002
23	29	0.024423211313	0.005
23	38	0.025151211313	0.002
23	46	0.026836193817	0
23	46	0.026836193817	0
23	46	0.026836193817	0.002
23	47	0.026836193817	0
23	47	0.026836193817	0.1
23	52	0.027564193817	0.002
23	52	0.027564193817	0
23	52	0.027564193817	0.002
23	52	0.027564193817	0.002
23	52	0.027564193817	0.002
23	69	0.028186077412	0
23	69	0.028186077412	0.01
23	78	0.028914077412	0.002
23	97	0.030555521466	0.01
23	106	0.031283521466	0.002
23	128	0.343112748944	0
23	128	0.343112748944	0
23	128	0.343112748944	0.002
23	128	0.343112748944	0.002
23	129	0.343112748944	0
23	129	0.343112748944	0.1
23	134	0.343840748944	0.002
23	134	0.343840748944	0
23	134	0.343840748944	0.002
23	134	0.343840748944	0.002
23	134	0.343840748944	0.002
23	151	0.344727500259	0
23	151	0.344727500259	0.01
23	160	0.345455500259	0.002
23	180	0.345987508451	0.005
23	180	0.345987508451	0.005
23	200	0.346715508451	0.002
23	208	0.346866462406	0.005
23	221	0.347562462406	0.002
23	227	0.347572483525	0.005
23	234	0.347812483525	0.002
23	245	0.348363259648	0.005
23	254	0.349091259648	0.002
23	263	0.349402491597	0.005
23	273	0.350098491597	0.002
23	278	0.350108550475	0
23	278	0.350108550475	0.01
23	284	0.350348550475	0.002
23	293	0.350499343458	0.005
23	293	0.350499343458	0.005
23	302	0.351227343458	0.002
23	313	0.352996590675	0
23	313	0.352996590675	0.01
23	323	0.353692590675	0.002
23	332	0.353702590675	0
23	332	0.353702590675	0
23	332	0.353702590675	0.002
23	332	0.353702590675	0.002
23	333	0.353702590675	0
23	333	0.353702590675	0.1
23	339	0.353942590675	0.002
23	339	0.353942590675	0
23	339	0.353942590675	0.002
23	339	0.353942590675	0.002
23	339	0.353942590675	0.002
23	347	0.354332590675	0
23	347	0.354332590675	0
23	347	0.354332590675	0.002
23	348	0.354332590675	0
23	348	0.354332590675	0.1
23	353	0.354940590675	0.002
23	353	0.354940590675	0
23	353	0.354940590675	0.002
23	353	0.354940590675	0.002
23	353	0.354940590675	0.002
23	364	0.354951695505	0
23	364	0.354951695505	0.01
23	370	0.355191695505	0.002
23	379	0.355281695505	0.01
23	392	0.356009695505	0.002
23	409	0.356440611701	0.005
23	409	0.356440611701	0.005
23	420	0.357136611701	0.002
23	425	0.357146670579	0
23	425	0.357146670579	0.01
23	431	0.357386670579	0.002
23	441	0.357636670579	0.01
23	450	0.358244670579	0.002
23	459	0.358255586775	0.005
23	459	0.358255586775	0.005
23	466	0.358495586775	0.002
23	473	0.358825586775	0.005
23	484	0.359433586775	0.002
23	490	0.35944454073	0.005
23	496	0.35968454073	0.002
23	508	0.360721068247	0
23	508	0.360721068247	0.01
23	515	0.361417068247	0.002
23	527	0.36142786123	0.005
23	527	0.36142786123	0.005
23	533	0.36166786123	0.002
23	540	0.36171786123	0.005
23	548	0.36232586123	0.002
23	554	0.362336252721	0
23	554	0.362336252721	0.01
23	560	0.362576252721	0.002
23	569	0.362646252721	0.01
23	577	0.363254252721	0.002
23	586	0.363265168917	0.005
23	586	0.363265168917	0.005
23	593	0.363505168917	0.002
23	601	0.363735168917	0.005
23	617	0.364343168917	0.002
23	623	0.364354122872	0.005
23	629	0.364594122872	0.002
23	638	0.365264122872	0.005
23	657	0.371304122872	0.002
23	663	0.371314143991	0.005
23	671	0.371554143991	0.002
23	679	0.371604143991	0.005
23	695	0.377644143991	0.002
23	700	0.377654202869	0
23	700	0.377654202869	0.01
23	706	0.377894202869	0.002
23	716	0.378144202869	0.01
23	724	0.384184202869	0.002
23	732	0.384194202869	0
23	732	0.384194202869	0
23	732	0.384194202869	0.002
23	732	0.384194202869	0.002
23	733	0.384194202869	0
23	733	0.384194202869	0.1
23	738	0.384434202869	0.002
23	738	0.384434202869	0
23	738	0.384434202869	0.002
23	738	0.384434202869	0.002
23	738	0.384434202869	0.002
23	749	0.384907097853	0.005
23	761	0.385635097853	0.002
23	768	0.386085118972	0.005
23	779	0.386781118972	0.002
23	785	0.386792072927	0.005
23	791	0.387032072927	0.002
23	798	0.387542072927	0.005
23	808	0.393582072927	0.002
23	814	0.393592094046	0.005
23	821	0.393832094046	0.002
23	828	0.393942094046	0.005
23	842	0.399982094046	0.002
23	847	0.399992152924	0
23	847	0.399992152924	0.01
23	853	0.400232152924	0.002
23	862	0.400882152924	0.01
23	870	0.406922152924	0.002
23	881	0.406932945907	0.005
23	881	0.406932945907	0.005
23	887	0.407172945907	0.002
24	0	0	0
24	0	0	0
24	0	0	2
24	66	0.028185524997	3
24	72	0.028913524997	2
24	94	0.030554969051	3
24	100	0.031282969051	2
24	148	0.344726947844	3
24	154	0.345454947844	2
24	275	0.35010799806	3
24	281	0.35034799806	2
24	310	0.35299603826	3
24	320	0.35369203826	2
24	361	0.35495114309	3
24	367	0.35519114309	2
24	376	0.35528114309	3
24	383	0.35600914309	2
24	422	0.357146118164	3
24	428	0.357386118164	2
24	438	0.357636118164	3
24	445	0.358244118164	2
24	505	0.360720515832	3
24	512	0.361416515832	2
24	551	0.362335700306	3
24	557	0.362575700306	2
24	566	0.362645700306	3
24	572	0.363253700306	2
24	697	0.377653650454	3
24	703	0.377893650454	2
24	713	0.378143650454	3
24	721	0.384183650454	2
24	844	0.399991600509	3
24	850	0.400231600509	2
24	859	0.400881600509	3
24	867	0.406921600509	2
25	0	0	0
25	0	0	0
25	0	0	0
25	0	0	0.002
25	28	0.024423050389	0
25	28	0.024423050389	0.01
25	33	0.025151050389	0.002
25	48	0.026836746232	0.01
25	53	0.027564746232	0.002
25	66	0.028185524997	0
25	66	0.028185524997	0
25	66	0.028185524997	0.002
25	66	0.028185524997	0.002
25	67	0.028185524997	0
25	67	0.028185524997	0.1
25	72	0.028913524997	0.002
25	72	0.028913524997	0
25	72	0.028913524997	0.002
25	72	0.028913524997	0.002
25	72	0.028913524997	0.002
25	94	0.030554969051	0
25	94	0.030554969051	0
25	94	0.030554969051	0.002
25	95	0.030554969051	0
25	95	0.030554969051	0.1
25	100	0.031282969051	0.002
25	100	0.031282969051	0
25	100	0.031282969051	0.002
25	100	0.031282969051	0.002
25	100	0.031282969051	0.002
25	130	0.343113301359	0
25	130	0.343113301359	0.01
25	135	0.343841301359	0.002
25	148	0.344726947844	0
25	148	0.344726947844	0
25	148	0.344726947844	0.002
25	148	0.344726947844	0.002
25	149	0.344726947844	0
25	149	0.344726947844	0.1
25	154	0.345454947844	0.002
25	154	0.345454947844	0
25	154	0.345454947844	0.002
25	154	0.345454947844	0.002
25	154	0.345454947844	0.002
25	178	0.345987014914	0
25	178	0.345987014914	0.01
25	187	0.346715014914	0.002
25	207	0.346865989989	0.005
25	207	0.346865989989	0.005
25	220	0.347561989989	0.002
25	225	0.347571989988	0
25	225	0.347571989988	0.01
25	230	0.347811989988	0.002
25	244	0.348363098724	0.01
25	249	0.349091098724	0.002
25	261	0.34940199806	0.01
25	266	0.35009799806	0.002
25	275	0.35010799806	0
25	275	0.35010799806	0
25	275	0.35010799806	0.002
25	275	0.35010799806	0.002
25	276	0.35010799806	0
25	276	0.35010799806	0.1
25	281	0.35034799806	0.002
25	281	0.35034799806	0
25	281	0.35034799806	0.002
25	281	0.35034799806	0.002
25	281	0.35034799806	0.002
25	292	0.350499182534	0
25	292	0.350499182534	0.01
25	297	0.351227182534	0.002
25	310	0.35299603826	0
25	310	0.35299603826	0
25	310	0.35299603826	0.002
25	310	0.35299603826	0.002
25	311	0.35299603826	0
25	311	0.35299603826	0.1
25	320	0.35369203826	0.002
25	320	0.35369203826	0
25	320	0.35369203826	0.002
25	320	0.35369203826	0.002
25	320	0.35369203826	0.002
25	334	0.35370314309	0
25	334	0.35370314309	0.01
25	340	0.35394314309	0.002
25	349	0.35433314309	0.01
25	354	0.35494114309	0.002
25	361	0.35495114309	0
25	361	0.35495114309	0
25	361	0.35495114309	0.002
25	361	0.35495114309	0.002
25	362	0.35495114309	0
25	362	0.35495114309	0.1
25	367	0.35519114309	0.002
25	367	0.35519114309	0
25	367	0.35519114309	0.002
25	367	0.35519114309	0.002
25	367	0.35519114309	0.002
25	376	0.35528114309	0
25	376	0.35528114309	0
25	376	0.35528114309	0.002
25	377	0.35528114309	0
25	377	0.35528114309	0.1
25	383	0.35600914309	0.002
25	383	0.35600914309	0
25	383	0.35600914309	0.002
25	383	0.35600914309	0.002
25	383	0.35600914309	0.002
25	407	0.356440118164	0
25	407	0.356440118164	0.01
25	413	0.357136118164	0.002
25	422	0.357146118164	0
25	422	0.357146118164	0
25	422	0.357146118164	0.002
25	422	0.357146118164	0.002
25	423	0.357146118164	0
25	423	0.357146118164	0.1
25	428	0.357386118164	0.002
25	428	0.357386118164	0
25	428	0.357386118164	0.002
25	428	0.357386118164	0.002
25	428	0.357386118164	0.002
25	438	0.357636118164	0
25	438	0.357636118164	0
25	438	0.357636118164	0.002
25	439	0.357636118164	0
25	439	0.357636118164	0.1
25	445	0.358244118164	0.002
25	445	0.358244118164	0
25	445	0.358244118164	0.002
25	445	0.358244118164	0.002
25	445	0.358244118164	0.002
25	457	0.358255093238	0
25	457	0.358255093238	0.01
25	462	0.358495093238	0.002
25	471	0.358825093238	0.01
25	477	0.359433093238	0.002
25	489	0.359444068313	0.005
25	489	0.359444068313	0.005
25	495	0.359684068313	0.002
25	505	0.360720515832	0
25	505	0.360720515832	0
25	505	0.360720515832	0.002
25	506	0.360720515832	0
25	506	0.360720515832	0.1
25	512	0.361416515832	0.002
25	512	0.361416515832	0
25	512	0.361416515832	0.002
25	512	0.361416515832	0.002
25	512	0.361416515832	0.002
25	526	0.361427700306	0
25	526	0.361427700306	0.01
25	531	0.361667700306	0.002
25	539	0.361717700306	0.01
25	544	0.362325700306	0.002
25	551	0.362335700306	0
25	551	0.362335700306	0
25	551	0.362335700306	0.002
25	551	0.362335700306	0.002
25	552	0.362335700306	0
25	552	0.362335700306	0.1
25	557	0.362575700306	0.002
25	557	0.362575700306	0
25	557	0.362575700306	0.002
25	557	0.362575700306	0.002
25	557	0.362575700306	0.002
25	566	0.362645700306	0
25	566	0.362645700306	0
25	566	0.362645700306	0.002
25	567	0.362645700306	0
25	567	0.362645700306	0.1
25	572	0.363253700306	0.002
25	572	0.363253700306	0
25	572	0.363253700306	0.002
25	572	0.363253700306	0.002
25	572	0.363253700306	0.002
25	584	0.36326467538	0
25	584	0.36326467538	0.01
25	589	0.36350467538	0.002
25	599	0.36373467538	0.01
25	605	0.36434267538	0.002
25	622	0.364353650455	0.005
25	622	0.364353650455	0.005
25	628	0.364593650455	0.002
25	637	0.365263650455	0.005
25	656	0.371303650455	0.002
25	661	0.371313650454	0
25	661	0.371313650454	0.01
25	667	0.371553650454	0.002
25	677	0.371603650454	0.01
25	689	0.377643650454	0.002
25	697	0.377653650454	0
25	697	0.377653650454	0
25	697	0.377653650454	0.002
25	697	0.377653650454	0.002
25	698	0.377653650454	0
25	698	0.377653650454	0.1
25	703	0.377893650454	0.002
25	703	0.377893650454	0
25	703	0.377893650454	0.002
25	703	0.377893650454	0.002
25	703	0.377893650454	0.002
25	713	0.378143650454	0
25	713	0.378143650454	0
25	713	0.378143650454	0.002
25	714	0.378143650454	0
25	714	0.378143650454	0.1
25	721	0.384183650454	0.002
25	721	0.384183650454	0
25	721	0.384183650454	0.002
25	721	0.384183650454	0.002
25	721	0.384183650454	0.002
25	734	0.384194755284	0
25	734	0.384194755284	0.01
25	739	0.384434755284	0.002
25	748	0.384906625436	0.005
25	748	0.384906625436	0.005
25	760	0.385634625436	0.002
25	766	0.386084625435	0
25	766	0.386084625435	0.01
25	771	0.386780625435	0.002
25	784	0.38679160051	0.005
25	784	0.38679160051	0.005
25	790	0.38703160051	0.002
25	797	0.38754160051	0.005
25	807	0.39358160051	0.002
25	812	0.393591600509	0
25	812	0.393591600509	0.01
25	817	0.393831600509	0.002
25	826	0.393941600509	0.01
25	836	0.399981600509	0.002
25	844	0.399991600509	0
25	844	0.399991600509	0
25	844	0.399991600509	0.002
25	844	0.399991600509	0.002
25	845	0.399991600509	0
25	845	0.399991600509	0.1
25	850	0.400231600509	0.002
25	850	0.400231600509	0
25	850	0.400231600509	0.002
25	850	0.400231600509	0.002
25	850	0.400231600509	0.002
25	859	0.400881600509	0
25	859	0.400881600509	0
25	859	0.400881600509	0.002
25	860	0.400881600509	0
25	860	0.400881600509	0.1
25	867	0.406921600509	0.002
25	867	0.406921600509	0
25	867	0.406921600509	0.002
25	867	0.406921600509	0.002
25	867	0.406921600509	0.002
25	880	0.406932784983	0
25	880	0.406932784983	0.01
25	885	0.407172784983	0.002
26	0	0	0
26	0	0	0
26	0	0	2
26	176	0.345986527377	3
26	186	0.346714527377	2
26	223	0.347571502451	3
26	229	0.347811502451	2
26	259	0.349401510523	3
26	265	0.350097510523	2
26	405	0.356439630627	3
26	412	0.357135630627	2
26	455	0.358254605701	3
26	461	0.358494605701	2
26	469	0.358824605701	3
26	476	0.359432605701	2
26	582	0.363264187843	3
26	588	0.363504187843	2
26	597	0.363734187843	3
26	604	0.364342187843	2
26	659	0.371313162917	3
26	666	0.371553162917	2
26	674	0.371603162917	3
26	688	0.377643162917	2
26	764	0.386084137898	3
26	770	0.386780137898	2
26	810	0.393591112972	3
26	816	0.393831112972	2
26	824	0.393941112972	3
26	835	0.399981112972	2
27	0	0	0
27	0	0	0
27	0	0	0
27	0	0	0.002
27	30	0.024423462188	0.005
27	39	0.025151462188	0.002
27	50	0.026837174891	0.005
27	59	0.027565174891	0.002
27	68	0.028186012534	0
27	68	0.028186012534	0.01
27	73	0.028914012534	0.002
27	96	0.030555456588	0.01
27	101	0.031283456588	0.002
27	132	0.343113730018	0.005
27	132	0.343113730018	0.005
27	141	0.343841730018	0.002
27	150	0.344727435381	0
27	150	0.344727435381	0.01
27	155	0.345455435381	0.002
27	176	0.345986527377	0
27	176	0.345986527377	0
27	176	0.345986527377	0.002
27	176	0.345986527377	0.002
27	177	0.345986527377	0
27	177	0.345986527377	0.1
27	186	0.346714527377	0.002
27	186	0.346714527377	0
27	186	0.346714527377	0.002
27	186	0.346714527377	0.002
27	186	0.346714527377	0.002
27	206	0.346865502451	0
27	206	0.346865502451	0.01
27	215	0.347561502451	0.002
27	223	0.347571502451	0
27	223	0.347571502451	0
27	223	0.347571502451	0.002
27	223	0.347571502451	0.002
27	224	0.347571502451	0
27	224	0.347571502451	0.1
27	229	0.347811502451	0.002
27	229	0.347811502451	0
27	229	0.347811502451	0.002
27	229	0.347811502451	0.002
27	229	0.347811502451	0.002
27	246	0.348363510523	0.005
27	255	0.349091510523	0.002
27	259	0.349401510523	0
27	259	0.349401510523	0
27	259	0.349401510523	0.002
27	260	0.349401510523	0
27	260	0.349401510523	0.1
27	265	0.350097510523	0.002
27	265	0.350097510523	0
27	265	0.350097510523	0.002
27	265	0.350097510523	0.002
27	265	0.350097510523	0.002
27	277	0.350108485597	0
27	277	0.350108485597	0.01
27	282	0.350348485597	0.002
27	294	0.350499594333	0.005
27	294	0.350499594333	0.005
27	303	0.351227594333	0.002
27	312	0.352996525797	0
27	312	0.352996525797	0.01
27	321	0.353692525797	0.002
27	336	0.353703571749	0.005
27	336	0.353703571749	0.005
27	343	0.353943571749	0.002
27	351	0.354333571749	0.005
27	359	0.354941571749	0.002
27	363	0.354951630627	0
27	363	0.354951630627	0.01
27	368	0.355191630627	0.002
27	378	0.355281630627	0.01
27	384	0.356009630627	0.002
27	405	0.356439630627	0
27	405	0.356439630627	0
27	405	0.356439630627	0.002
27	405	0.356439630627	0.002
27	406	0.356439630627	0
27	406	0.356439630627	0.1
27	412	0.357135630627	0.002
27	412	0.357135630627	0
27	412	0.357135630627	0.002
27	412	0.357135630627	0.002
27	412	0.357135630627	0.002
27	424	0.357146605701	0
27	424	0.357146605701	0.01
27	429	0.357386605701	0.002
27	440	0.357636605701	0.01
27	446	0.358244605701	0.002
27	455	0.358254605701	0
27	455	0.358254605701	0
27	455	0.358254605701	0.002
27	455	0.358254605701	0.002
27	456	0.358254605701	0
27	456	0.358254605701	0.1
27	461	0.358494605701	0.002
27	461	0.358494605701	0
27	461	0.358494605701	0.002
27	461	0.358494605701	0.002
27	461	0.358494605701	0.002
27	469	0.358824605701	0
27	469	0.358824605701	0
27	469	0.358824605701	0.002
27	470	0.358824605701	0
27	470	0.358824605701	0.1
27	476	0.359432605701	0.002
27	476	0.359432605701	0
27	476	0.359432605701	0.002
27	476	0.359432605701	0.002
27	476	0.359432605701	0.002
27	488	0.359443580775	0
27	488	0.359443580775	0.01
27	493	0.359683580775	0.002
27	507	0.360721003369	0.01
27	513	0.361417003369	0.002
27	528	0.361428112105	0.005
27	528	0.361428112105	0.005
27	534	0.361668112105	0.002
27	541	0.361718112105	0.005
27	549	0.362326112105	0.002
27	553	0.362336187843	0
27	553	0.362336187843	0.01
27	558	0.362576187843	0.002
27	568	0.362646187843	0.01
27	573	0.363254187843	0.002
27	582	0.363264187843	0
27	582	0.363264187843	0
27	582	0.363264187843	0.002
27	582	0.363264187843	0.002
27	583	0.363264187843	0
27	583	0.363264187843	0.1
27	588	0.363504187843	0.002
27	588	0.363504187843	0
27	588	0.363504187843	0.002
27	588	0.363504187843	0.002
27	588	0.363504187843	0.002
27	597	0.363734187843	0
27	597	0.363734187843	0
27	597	0.363734187843	0.002
27	598	0.363734187843	0
27	598	0.363734187843	0.1
27	604	0.364342187843	0.002
27	604	0.364342187843	0
27	604	0.364342187843	0.002
27	604	0.364342187843	0.002
27	604	0.364342187843	0.002
27	621	0.364353162917	0
27	621	0.364353162917	0.01
27	626	0.364593162917	0.002
27	636	0.365263162917	0.01
27	652	0.371303162917	0.002
27	659	0.371313162917	0
27	659	0.371313162917	0
27	659	0.371313162917	0.002
27	659	0.371313162917	0.002
27	660	0.371313162917	0
27	660	0.371313162917	0.1
27	666	0.371553162917	0.002
27	666	0.371553162917	0
27	666	0.371553162917	0.002
27	666	0.371553162917	0.002
27	666	0.371553162917	0.002
27	674	0.371603162917	0
27	674	0.371603162917	0
27	674	0.371603162917	0.002
27	675	0.371603162917	0
27	675	0.371603162917	0.1
27	688	0.377643162917	0.002
27	688	0.377643162917	0
27	688	0.377643162917	0.002
27	688	0.377643162917	0.002
27	688	0.377643162917	0.002
27	699	0.377654137991	0
27	699	0.377654137991	0.01
27	704	0.377894137991	0.002
27	715	0.378144137991	0.01
27	722	0.384184137991	0.002
27	736	0.384195183943	0.005
27	736	0.384195183943	0.005
27	742	0.384435183943	0.002
27	747	0.384906137898	0
27	747	0.384906137898	0.01
27	752	0.385634137898	0.002
27	764	0.386084137898	0
27	764	0.386084137898	0
27	764	0.386084137898	0.002
27	764	0.386084137898	0.002
27	765	0.386084137898	0
27	765	0.386084137898	0.1
27	770	0.386780137898	0.002
27	770	0.386780137898	0
27	770	0.386780137898	0.002
27	770	0.386780137898	0.002
27	770	0.386780137898	0.002
27	783	0.386791112972	0
27	783	0.386791112972	0.01
27	788	0.387031112972	0.002
27	796	0.387541112972	0.01
27	803	0.393581112972	0.002
27	810	0.393591112972	0
27	810	0.393591112972	0
27	810	0.393591112972	0.002
27	810	0.393591112972	0.002
27	811	0.393591112972	0
27	811	0.393591112972	0.1
27	816	0.393831112972	0.002
27	816	0.393831112972	0
27	816	0.393831112972	0.002
27	816	0.393831112972	0.002
27	816	0.393831112972	0.002
27	824	0.393941112972	0
27	824	0.393941112972	0
27	824	0.393941112972	0.002
27	825	0.393941112972	0
27	825	0.393941112972	0.1
27	835	0.399981112972	0.002
27	835	0.399981112972	0
27	835	0.399981112972	0.002
27	835	0.399981112972	0.002
27	835	0.399981112972	0.002
27	846	0.399992088046	0
27	846	0.399992088046	0.01
27	851	0.400232088046	0.002
27	861	0.400882088046	0.01
27	868	0.406922088046	0.002
27	882	0.406933196782	0.005
27	882	0.406933196782	0.005
27	888	0.407173196782	0.002
28	0	0	0
28	0	0	0
28	0	0	2
28	204	0.346865014914	3
28	214	0.347561014914	2
28	486	0.359443093238	3
28	492	0.359683093238	2
28	619	0.36435267538	3
28	625	0.36459267538	2
28	634	0.36526267538	3
28	651	0.37130267538	2
28	745	0.384905650361	3
28	751	0.385633650361	2
28	781	0.386790625435	3
28	787	0.387030625435	2
28	794	0.387540625435	3
28	802	0.393580625435	2
29	0	0	0
29	0	0	0
29	0	0	0
29	0	0	0.002
29	31	0.024423921305	0.005
29	40	0.025151921305	0.002
29	51	0.026837641309	0.005
29	60	0.027565641309	0.002
29	71	0.028186500072	0.005
29	88	0.028914500072	0.002
29	99	0.030555944126	0.005
29	116	0.031283944126	0.002
29	133	0.343114196436	0.005
29	142	0.343842196436	0.002
29	153	0.344727922919	0.005
29	170	0.345455922919	0.002
29	179	0.345987014914	0
29	179	0.345987014914	0.01
29	188	0.346715014914	0.002
29	204	0.346865014914	0
29	204	0.346865014914	0
29	204	0.346865014914	0.002
29	204	0.346865014914	0.002
29	205	0.346865014914	0
29	205	0.346865014914	0.1
29	214	0.347561014914	0.002
29	214	0.347561014914	0
29	214	0.347561014914	0.002
29	214	0.347561014914	0.002
29	214	0.347561014914	0.002
29	226	0.347571989988	0
29	226	0.347571989988	0.01
29	231	0.347811989988	0.002
29	247	0.34836396964	0.005
29	247	0.34836396964	0.005
29	256	0.34909196964	0.002
29	262	0.34940199806	0
29	262	0.34940199806	0.01
29	267	0.35009799806	0.002
29	280	0.350108973135	0.005
29	280	0.350108973135	0.005
29	288	0.350348973135	0.002
29	295	0.35050005345	0.005
29	304	0.35122805345	0.002
29	315	0.352997013335	0.005
29	331	0.353693013335	0.002
29	337	0.353704038167	0.005
29	344	0.353944038167	0.002
29	352	0.354334038167	0.005
29	360	0.354942038167	0.002
29	366	0.354952118165	0.005
29	374	0.355192118165	0.002
29	381	0.355282118165	0.005
29	402	0.356010118165	0.002
29	408	0.356440118164	0
29	408	0.356440118164	0.01
29	414	0.357136118164	0.002
29	427	0.357147093239	0.005
29	427	0.357147093239	0.005
29	435	0.357387093239	0.002
29	443	0.357637093239	0.005
29	454	0.358245093239	0.002
29	458	0.358255093238	0
29	458	0.358255093238	0.01
29	463	0.358495093238	0.002
29	472	0.358825093238	0.01
29	478	0.359433093238	0.002
29	486	0.359443093238	0
29	486	0.359443093238	0
29	486	0.359443093238	0.002
29	486	0.359443093238	0.002
29	487	0.359443093238	0
29	487	0.359443093238	0.1
29	492	0.359683093238	0.002
29	492	0.359683093238	0
29	492	0.359683093238	0.002
29	492	0.359683093238	0.002
29	492	0.359683093238	0.002
29	510	0.360721490907	0.005
29	523	0.361417490907	0.002
29	529	0.361428571222	0.005
29	535	0.361668571222	0.002
29	542	0.361718571222	0.005
29	550	0.362326571222	0.002
29	556	0.362336675381	0.005
29	564	0.362576675381	0.002
29	571	0.362646675381	0.005
29	581	0.363254675381	0.002
29	585	0.36326467538	0
29	585	0.36326467538	0.01
29	590	0.36350467538	0.002
29	600	0.36373467538	0.01
29	606	0.36434267538	0.002
29	619	0.36435267538	0
29	619	0.36435267538	0
29	619	0.36435267538	0.002
29	619	0.36435267538	0.002
29	620	0.36435267538	0
29	620	0.36435267538	0.1
29	625	0.36459267538	0.002
29	625	0.36459267538	0
29	625	0.36459267538	0.002
29	625	0.36459267538	0.002
29	625	0.36459267538	0.002
29	634	0.36526267538	0
29	634	0.36526267538	0
29	634	0.36526267538	0.002
29	635	0.36526267538	0
29	635	0.36526267538	0.1
29	651	0.37130267538	0.002
29	651	0.37130267538	0
29	651	0.37130267538	0.002
29	651	0.37130267538	0.002
29	651	0.37130267538	0.002
29	662	0.371313650454	0
29	662	0.371313650454	0.01
29	668	0.371553650454	0.002
29	678	0.371603650454	0.01
29	690	0.377643650454	0.002
29	702	0.377654625529	0.005
29	702	0.377654625529	0.005
29	710	0.377894625529	0.002
29	718	0.378144625529	0.005
29	731	0.384184625529	0.002
29	737	0.384195650361	0.005
29	743	0.384435650361	0.002
29	745	0.384905650361	0
29	745	0.384905650361	0
29	745	0.384905650361	0.002
29	746	0.384905650361	0
29	746	0.384905650361	0.1
29	751	0.385633650361	0.002
29	751	0.385633650361	0
29	751	0.385633650361	0.002
29	751	0.385633650361	0.002
29	751	0.385633650361	0.002
29	767	0.386084625435	0
29	767	0.386084625435	0.01
29	772	0.386780625435	0.002
29	781	0.386790625435	0
29	781	0.386790625435	0
29	781	0.386790625435	0.002
[...]
47	254	0.349091259648	-0.000867702519296
47	263	0.349402491597	-0.000868324983194
47	273	0.350098491597	-0.000871804983194
47	278	0.350108550475	-0.00087182510095
47	284	0.350348550475	-0.00087422510095
47	293	0.350499343458	-0.000874526686916
47	302	0.351227343458	-0.000878166686916
47	313	0.352996590675	-0.00088170518135
47	323	0.353692590675	-0.00088866518135
47	332	0.353702590675	-0.00088868518135
47	339	0.353942590675	-0.00091268518135
47	347	0.354332590675	-0.00091346518135
47	353	0.354940590675	-0.00097426518135
47	364	0.354951695505	-0.00097428739101
47	370	0.355191695505	-0.00097668739101
47	379	0.355281695505	-0.00097686739101
47	392	0.356009695505	-0.00098414739101
47	409	0.356440611701	-0.000985009223402
47	420	0.357136611701	-0.000988489223402
47	425	0.357146670579	-0.000988509341158
47	431	0.357386670579	-0.000990909341158
47	441	0.357636670579	-0.000991409341158
47	450	0.358244670579	-0.000997489341158
47	459	0.358255586775	-0.00099751117355
47	466	0.358495586775	-0.00099871117355
47	473	0.358825586775	-0.00099937117355
47	484	0.359433586775	-0.00100241117355
47	490	0.35944454073	-0.00100243308146
47	496	0.35968454073	-0.00100363308146
47	508	0.360721068247	-0.001005706136494
47	515	0.361417068247	-0.001012666136494
47	527	0.36142786123	-0.00101268772246
47	533	0.36166786123	-0.00101388772246
47	540	0.36171786123	-0.00101398772246
47	548	0.36232586123	-0.00101702772246
47	554	0.362336252721	-0.001017048505442
47	560	0.362576252721	-0.001019448505442
47	569	0.362646252721	-0.001019588505442
47	577	0.363254252721	-0.001025668505442
47	586	0.363265168917	-0.001025690337834
47	593	0.363505168917	-0.001026890337834
47	601	0.363735168917	-0.001027350337834
47	617	0.364343168917	-0.001030390337834
47	623	0.364354122872	-0.001030412245744
47	629	0.364594122872	-0.001031612245744
47	638	0.365264122872	-0.001032952245744
47	657	0.371304122872	-0.001063152245744
47	663	0.371314143991	-0.001063172287982
47	671	0.371554143991	-0.001064372287982
47	679	0.371604143991	-0.001064472287982
47	695	0.377644143991	-0.001094672287982
47	700	0.377654202869	-0.001094692405738
47	706	0.377894202869	-0.001097092405738
47	716	0.378144202869	-0.001097592405738
47	724	0.384184202869	-0.001157992405738
47	732	0.384194202869	-0.001158012405738
47	738	0.384434202869	-0.001182012405738
47	749	0.384907097853	-0.001182958195706
47	761	0.385635097853	-0.001186598195706
47	768	0.386085118972	-0.001187498237944
47	779	0.386781118972	-0.001190978237944
47	785	0.386792072927	-0.001191000145854
47	791	0.387032072927	-0.001192200145854
47	798	0.387542072927	-0.001193220145854
47	808	0.393582072927	-0.001223420145854
47	814	0.393592094046	-0.001223440188092
47	821	0.393832094046	-0.001224640188092
47	828	0.393942094046	-0.001224860188092
47	842	0.399982094046	-0.001255060188092
47	847	0.399992152924	-0.001255080305848
47	853	0.400232152924	-0.001257480305848
47	862	0.400882152924	-0.001258780305848
47	870	0.406922152924	-0.001319180305848
47	881	0.406932945907	-0.001319201891814
47	887	0.407172945907	-0.001320401891814
48	30	0.024423462188	-4.8846924376e-05
48	39	0.025151462188	-5.2486924376e-05
48	50	0.026837174891	-5.5858349782e-05
48	59	0.027565174891	-5.9498349782e-05
48	68	0.028186012534	-6.0740025068e-05
48	73	0.028914012534	-6.8020025068e-05
48	96	0.030555456588	-7.1302913176e-05
48	101	0.031283456588	-7.8582913176e-05
48	132	0.343113730018	-0.000702243460036
48	141	0.343841730018	-0.000705883460036
48	150	0.344727435381	-0.000707654870762
48	155	0.345455435381	-0.000714934870762
48	176	0.345986527377	-0.000715997054754
48	186	0.346714527377	-0.000788797054754
48	206	0.346865502451	-0.000789099004902
48	215	0.347561502451	-0.000796059004902
48	223	0.347571502451	-0.000796079004902
48	229	0.347811502451	-0.000820079004902
48	246	0.348363510523	-0.000821183021046
48	255	0.349091510523	-0.000824823021046
48	259	0.349401510523	-0.000825443021046
48	265	0.350097510523	-0.000895043021046
48	277	0.350108485597	-0.000895064971194
48	282	0.350348485597	-0.000897464971194
48	294	0.350499594333	-0.000897767188666
48	303	0.351227594333	-0.000901407188666
48	312	0.352996525797	-0.000904945051594
48	321	0.353692525797	-0.000911905051594
48	336	0.353703571749	-0.000911927143498
48	343	0.353943571749	-0.000913127143498
48	351	0.354333571749	-0.000913907143498
48	359	0.354941571749	-0.000916947143498
48	363	0.354951630627	-0.000916967261254
48	368	0.355191630627	-0.000919367261254
48	378	0.355281630627	-0.000919547261254
48	384	0.356009630627	-0.000926827261254
48	405	0.356439630627	-0.000927687261254
48	412	0.357135630627	-0.000997287261254
48	424	0.357146605701	-0.000997309211402
48	429	0.357386605701	-0.000999709211402
48	440	0.357636605701	-0.001000209211402
48	446	0.358244605701	-0.001006289211402
48	455	0.358254605701	-0.001006309211402
48	461	0.358494605701	-0.001030309211402
48	469	0.358824605701	-0.001030969211402
48	476	0.359432605701	-0.001091769211402
48	488	0.359443580775	-0.00109179116155
48	493	0.359683580775	-0.00109419116155
48	507	0.360721003369	-0.001096266006738
48	513	0.361417003369	-0.001103226006738
48	528	0.361428112105	-0.00110324822421
48	534	0.361668112105	-0.00110444822421
48	541	0.361718112105	-0.00110454822421
48	549	0.362326112105	-0.00110758822421
48	553	0.362336187843	-0.001107608375686
48	558	0.362576187843	-0.001110008375686
48	568	0.362646187843	-0.001110148375686
48	573	0.363254187843	-0.001116228375686
48	582	0.363264187843	-0.001116248375686
48	588	0.363504187843	-0.001140248375686
48	597	0.363734187843	-0.001140708375686
48	604	0.364342187843	-0.001201508375686
48	621	0.364353162917	-0.001201530325834
48	626	0.364593162917	-0.001203930325834
48	636	0.365263162917	-0.001205270325834
48	652	0.371303162917	-0.001265670325834
48	659	0.371313162917	-0.001265690325834
48	666	0.371553162917	-0.001289690325834
48	674	0.371603162917	-0.001289790325834
48	688	0.377643162917	-0.001893790325834
48	699	0.377654137991	-0.001893812275982
48	704	0.377894137991	-0.001896212275982
48	715	0.378144137991	-0.001896712275982
48	722	0.384184137991	-0.001957112275982
48	736	0.384195183943	-0.001957134367886
48	742	0.384435183943	-0.001958334367886
48	747	0.384906137898	-0.001959276275796
48	752	0.385634137898	-0.001966556275796
48	764	0.386084137898	-0.001967456275796
48	770	0.386780137898	-0.002037056275796
48	783	0.386791112972	-0.002037078225944
48	788	0.387031112972	-0.002039478225944
48	796	0.387541112972	-0.002040498225944
48	803	0.393581112972	-0.002100898225944
48	810	0.393591112972	-0.002100918225944
48	816	0.393831112972	-0.002124918225944
48	824	0.393941112972	-0.002125138225944
48	835	0.399981112972	-0.002729138225944
48	846	0.399992088046	-0.002729160176092
48	851	0.400232088046	-0.002731560176092
48	861	0.400882088046	-0.002732860176092
48	868	0.406922088046	-0.002793260176092
48	882	0.406933196782	-0.002793282393564
48	888	0.407173196782	-0.002794482393564
49	31	0.024423921305	-4.884784261e-05
49	40	0.025151921305	-5.248784261e-05
49	51	0.026837641309	-5.5859282618e-05
49	60	0.027565641309	-5.9499282618e-05
49	71	0.028186500072	-6.0741000144e-05
49	88	0.028914500072	-6.4381000144e-05
49	99	0.030555944126	-6.7663888252e-05
49	116	0.031283944126	-7.1303888252e-05
49	133	0.343114196436	-0.000694964392872
49	142	0.343842196436	-0.000698604392872
49	153	0.344727922919	-0.000700375845838
49	170	0.345455922919	-0.000704015845838
49	179	0.345987014914	-0.000705078029828
49	188	0.346715014914	-0.000712358029828
49	204	0.346865014914	-0.000712658029828
49	214	0.347561014914	-0.000782258029828
49	226	0.347571989988	-0.000782279979976
49	231	0.347811989988	-0.000784679979976
49	247	0.34836396964	-0.00078578393928
49	256	0.34909196964	-0.00078942393928
49	262	0.34940199806	-0.00079004399612
49	267	0.35009799806	-0.00079700399612
49	280	0.350108973135	-0.00079702594627
49	288	0.350348973135	-0.00079822594627
49	295	0.35050005345	-0.0007985281069
49	304	0.35122805345	-0.0008021681069
49	315	0.352997013335	-0.00080570602667
49	331	0.353693013335	-0.00080918602667
49	337	0.353704038167	-0.000809208076334
49	344	0.353944038167	-0.000810408076334
49	352	0.354334038167	-0.000811188076334
49	360	0.354942038167	-0.000814228076334
49	366	0.354952118165	-0.00081424823633
49	374	0.355192118165	-0.00081544823633
49	381	0.355282118165	-0.00081562823633
49	402	0.356010118165	-0.00081926823633
49	408	0.356440118164	-0.000820128236328
49	414	0.357136118164	-0.000827088236328
49	427	0.357147093239	-0.000827110186478
49	435	0.357387093239	-0.000828310186478
49	443	0.357637093239	-0.000828810186478
49	454	0.358245093239	-0.000831850186478
49	458	0.358255093238	-0.000831870186476
49	463	0.358495093238	-0.000834270186476
49	472	0.358825093238	-0.000834930186476
49	478	0.359433093238	-0.000841010186476
49	486	0.359443093238	-0.000841030186476
49	492	0.359683093238	-0.000865030186476
49	510	0.360721490907	-0.000867106981814
49	523	0.361417490907	-0.000870586981814
49	529	0.361428571222	-0.000870609142444
49	535	0.361668571222	-0.000871809142444
49	542	0.361718571222	-0.000871909142444
49	550	0.362326571222	-0.000874949142444
49	556	0.362336675381	-0.000874969350762
49	564	0.362576675381	-0.000876169350762
49	571	0.362646675381	-0.000876309350762
49	581	0.363254675381	-0.000879349350762
49	585	0.36326467538	-0.00087936935076
49	590	0.36350467538	-0.00088176935076
49	600	0.36373467538	-0.00088222935076
49	606	0.36434267538	-0.00088830935076
49	619	0.36435267538	-0.00088832935076
49	625	0.36459267538	-0.00091232935076
49	634	0.36526267538	-0.00091366935076
49	651	0.37130267538	-0.00151766935076
49	662	0.371313650454	-0.001517691300908
49	668	0.371553650454	-0.001520091300908
49	678	0.371603650454	-0.001520191300908
49	690	0.377643650454	-0.001580591300908
49	702	0.377654625529	-0.001580613251058
49	710	0.377894625529	-0.001581813251058
49	718	0.378144625529	-0.001582313251058
49	731	0.384184625529	-0.001612513251058
49	737	0.384195650361	-0.001612535300722
49	743	0.384435650361	-0.001613735300722
49	745	0.384905650361	-0.001614675300722
49	751	0.385633650361	-0.001687475300722
49	767	0.386084625435	-0.00168837725087
49	772	0.386780625435	-0.00169533725087
49	781	0.386790625435	-0.00169535725087
49	787	0.387030625435	-0.00171935725087
49	794	0.387540625435	-0.00172037725087
49	802	0.393580625435	-0.00232437725087
49	813	0.393591600509	-0.002324399201018
49	818	0.393831600509	-0.002326799201018
49	827	0.393941600509	-0.002327019201018
49	837	0.399981600509	-0.002387419201018
49	849	0.399992575584	-0.002387441151168
49	857	0.400232575584	-0.002388641151168
49	864	0.400882575584	-0.002389941151168
49	877	0.406922575584	-0.002420141151168
49	883	0.406933655899	-0.002420163311798
49	889	0.407173655899	-0.002421363311798
50	36	0.025151050389	32
50	56	0.027564746232	32
50	138	0.343841301359	32
50	193	0.346715014914	32
50	252	0.349091098724	32
50	271	0.35009799806	28
50	300	0.351227182534	32
50	418	0.357136118164	28
51	44	0.026506193817	416
51	126	0.342902748944	416
51	328	0.353692590675	296
52	44	0.026506193817	0
52	126	0.342902748944	0
52	332	0.353702590675	1e-05
53	44	0.026506193817	416
53	126	0.342902748944	416
53	332	0.353702590675	296
54	44	0.026506193817	0
54	126	0.342902748944	0
54	328	0.353692590675	1
54	332	0.353702590675	0
55	44	0.026506193817	0
55	126	0.342902748944	0
55	328	0.353692590675	296
55	332	0.353702590675	0
56	46	0.026836193817	1
56	47	0.026836193817	2
56	52	0.027564193817	1
56	52	0.027564193817	0
56	128	0.343112748944	1
56	129	0.343112748944	2
56	134	0.343840748944	1
56	134	0.343840748944	0
56	332	0.353702590675	1
56	333	0.353702590675	2
56	339	0.353942590675	1
56	339	0.353942590675	0
56	347	0.354332590675	1
56	348	0.354332590675	2
56	353	0.354940590675	1
56	353	0.354940590675	0
56	732	0.384194202869	1
56	733	0.384194202869	2
56	738	0.384434202869	1
56	738	0.384434202869	0
57	62	0.027795524997	32
57	90	0.030404969051	32
57	144	0.344276947844	32
57	306	0.35246603826	28
57	317	0.353441534979	32
57	501	0.360530515832	28
58	64	0.027795524997	416
58	92	0.030404969051	416
58	146	0.344276947844	416
58	308	0.35246603826	384
58	319	0.353441534979	416
58	357	0.35494114309	296
58	503	0.360530515832	384
58	547	0.362325700306	296
58	694	0.377643650454	5728
58	841	0.399981600509	5728
59	64	0.027795524997	0
59	92	0.030404969051	0
59	146	0.344276947844	0
59	308	0.35246603826	0
59	341	0.35394314309	0.000501608111
59	383	0.35600914309	0.001068
59	503	0.360530515832	0
59	551	0.362335700306	1e-05
59	697	0.377653650454	1e-05
59	844	0.399991600509	1e-05
60	64	0.027795524997	416
60	92	0.030404969051	416
60	146	0.344276947844	416
60	308	0.35246603826	384
60	341	0.35394314309	416
60	383	0.35600914309	296
60	503	0.360530515832	384
60	551	0.362335700306	296
60	697	0.377653650454	5728
60	844	0.399991600509	5728
61	64	0.027795524997	0
61	92	0.030404969051	0
61	146	0.344276947844	0
61	308	0.35246603826	0
61	319	0.353441534979	1
61	341	0.35394314309	0
61	357	0.35494114309	1
61	383	0.35600914309	0
61	503	0.360530515832	0
61	547	0.362325700306	1
61	551	0.362335700306	0
61	694	0.377643650454	1
61	697	0.377653650454	0
61	841	0.399981600509	1
61	844	0.399991600509	0
62	64	0.027795524997	0
62	92	0.030404969051	0
62	146	0.344276947844	0
62	308	0.35246603826	0
62	319	0.353441534979	416
62	341	0.35394314309	0
62	357	0.35494114309	296
62	383	0.35600914309	0
62	503	0.360530515832	0
62	547	0.362325700306	296
62	551	0.362335700306	0
62	694	0.377643650454	5728
62	697	0.377653650454	0
62	841	0.399981600509	5728
62	844	0.399991600509	0
63	66	0.028185524997	1
63	67	0.028185524997	2
63	72	0.028913524997	1
63	72	0.028913524997	0
63	94	0.030554969051	1
63	95	0.030554969051	2
63	100	0.031282969051	1
63	100	0.031282969051	0
63	148	0.344726947844	1
63	149	0.344726947844	2
63	154	0.345454947844	1
63	154	0.345454947844	0
63	275	0.35010799806	1
63	276	0.35010799806	2
63	281	0.35034799806	1
63	281	0.35034799806	0
63	310	0.35299603826	1
63	311	0.35299603826	2
63	320	0.35369203826	1
63	320	0.35369203826	0
63	361	0.35495114309	1
63	362	0.35495114309	2
63	367	0.35519114309	1
63	367	0.35519114309	0
63	376	0.35528114309	1
63	377	0.35528114309	2
63	383	0.35600914309	1
63	383	0.35600914309	0
63	422	0.357146118164	1
63	423	0.357146118164	2
63	428	0.357386118164	1
63	428	0.357386118164	0
63	438	0.357636118164	1
63	439	0.357636118164	2
63	445	0.358244118164	1
63	445	0.358244118164	0
63	505	0.360720515832	1
63	506	0.360720515832	2
63	512	0.361416515832	1
63	512	0.361416515832	0
63	551	0.362335700306	1
63	552	0.362335700306	2
63	557	0.362575700306	1
63	557	0.362575700306	0
63	566	0.362645700306	1
63	567	0.362645700306	2
63	572	0.363253700306	1
63	572	0.363253700306	0
63	697	0.377653650454	1
63	698	0.377653650454	2
63	703	0.377893650454	1
63	703	0.377893650454	0
63	713	0.378143650454	1
63	714	0.378143650454	2
63	721	0.384183650454	1
63	721	0.384183650454	0
63	844	0.399991600509	1
63	845	0.399991600509	2
63	850	0.400231600509	1
63	850	0.400231600509	0
63	859	0.400881600509	1
63	860	0.400881600509	2
63	867	0.406921600509	1
63	867	0.406921600509	0
64	76	0.028914012534	32
64	104	0.031283456588	32
64	158	0.345455435381	32
64	218	0.347561502451	28
64	387	0.356009630627	32
64	755	0.385634137898	32
65	81	0.028914077412	32
65	109	0.031283521466	32
65	163	0.345455500259	32
65	326	0.353692590675	28
65	395	0.356009695505	32
65	727	0.384184202869	696
66	86	0.028914117234	32
66	114	0.031283561288	32
66	168	0.345455540081	32
66	400	0.356009735327	32
66	520	0.361417108069	28
66	875	0.406922192746	696
67	172	0.345556527377	32
67	238	0.348263256338	28
67	389	0.356009630627	28
67	757	0.385634137898	28
68	174	0.345556527377	416
68	240	0.348263256338	384
68	391	0.356009630627	384
68	449	0.358244605701	296
68	576	0.363254187843	296
68	655	0.371303162917	5728
68	759	0.385634137898	384
68	806	0.393581112972	5728
69	174	0.345556527377	0
69	240	0.348263256338	0
69	391	0.356009630627	0
69	455	0.358254605701	1e-05
69	582	0.363264187843	1e-05
69	659	0.371313162917	1e-05
69	759	0.385634137898	0
69	810	0.393591112972	1e-05
70	174	0.345556527377	416
70	240	0.348263256338	384
70	391	0.356009630627	384
70	455	0.358254605701	296
70	582	0.363264187843	296
70	659	0.371313162917	5728
70	759	0.385634137898	384
70	810	0.393591112972	5728
71	174	0.345556527377	0
71	240	0.348263256338	0
71	391	0.356009630627	0
71	449	0.358244605701	1
71	455	0.358254605701	0
71	576	0.363254187843	1
71	582	0.363264187843	0
71	655	0.371303162917	1
71	659	0.371313162917	0
71	759	0.385634137898	0
71	806	0.393581112972	1
71	810	0.393591112972	0
72	174	0.345556527377	0
72	240	0.348263256338	0
72	391	0.356009630627	0
72	449	0.358244605701	296
72	455	0.358254605701	0
72	576	0.363254187843	296
72	582	0.363264187843	0
72	655	0.371303162917	5728
72	659	0.371313162917	0
72	759	0.385634137898	0
72	806	0.393581112972	5728
72	810	0.393591112972	0
73	176	0.345986527377	1
73	177	0.345986527377	2
73	186	0.346714527377	1
73	186	0.346714527377	0
73	223	0.347571502451	1
73	224	0.347571502451	2
73	229	0.347811502451	1
73	229	0.347811502451	0
73	259	0.349401510523	1
73	260	0.349401510523	2
73	265	0.350097510523	1
73	265	0.350097510523	0
73	405	0.356439630627	1
73	406	0.356439630627	2
73	412	0.357135630627	1
73	412	0.357135630627	0
73	455	0.358254605701	1
73	456	0.358254605701	2
73	461	0.358494605701	1
73	461	0.358494605701	0
73	469	0.358824605701	1
73	470	0.358824605701	2
73	476	0.359432605701	1
73	476	0.359432605701	0
73	582	0.363264187843	1
73	583	0.363264187843	2
73	588	0.363504187843	1
73	588	0.363504187843	0
73	597	0.363734187843	1
73	598	0.363734187843	2
73	604	0.364342187843	1
73	604	0.364342187843	0
73	659	0.371313162917	1
73	660	0.371313162917	2
73	666	0.371553162917	1
73	666	0.371553162917	0
73	674	0.371603162917	1
73	675	0.371603162917	2
73	688	0.377643162917	1
73	688	0.377643162917	0
73	764	0.386084137898	1
73	765	0.386084137898	2
73	770	0.386780137898	1
73	770	0.386780137898	0
73	810	0.393591112972	1
73	811	0.393591112972	2
73	816	0.393831112972	1
73	816	0.393831112972	0
73	824	0.393941112972	1
73	825	0.393941112972	2
73	835	0.399981112972	1
73	835	0.399981112972	0
74	194	0.346715014914	32
74	482	0.359433093238	17
74	610	0.36434267538	17
74	776	0.386780625435	28
75	197	0.346715014914	28
75	612	0.36434267538	696
75	613	0.36434267538	696
75	642	0.367029541521	32
76	199	0.346715014914	384
76	616	0.36434267538	5728
76	644	0.367029541521	416
76	778	0.386780625435	5728
77	199	0.346715014914	0
77	619	0.36435267538	1e-05
77	670	0.371553650454	0.004524108933
77	781	0.386790625435	1e-05
78	199	0.346715014914	384
78	619	0.36435267538	5728
78	670	0.371553650454	416
78	781	0.386790625435	5728
79	199	0.346715014914	0
79	616	0.36434267538	1
79	619	0.36435267538	0
79	644	0.367029541521	1
79	670	0.371553650454	0
79	778	0.386780625435	1
79	781	0.386790625435	0
80	199	0.346715014914	0
80	616	0.36434267538	5728
80	619	0.36435267538	0
80	644	0.367029541521	416
80	670	0.371553650454	0
80	778	0.386780625435	5728
80	781	0.386790625435	0
81	204	0.346865014914	1
81	205	0.346865014914	2
81	214	0.347561014914	1
81	214	0.347561014914	0
81	486	0.359443093238	1
81	487	0.359443093238	2
81	492	0.359683093238	1
81	492	0.359683093238	0
81	619	0.36435267538	1
81	620	0.36435267538	2
81	625	0.36459267538	1
81	625	0.36459267538	0
81	634	0.36526267538	1
81	635	0.36526267538	2
81	651	0.37130267538	1
81	651	0.37130267538	0
81	745	0.384905650361	1
81	746	0.384905650361	2
81	751	0.385633650361	1
81	751	0.385633650361	0
81	781	0.386790625435	1
81	782	0.386790625435	2
81	787	0.387030625435	1
81	787	0.387030625435	0
81	794	0.387540625435	1
81	795	0.387540625435	2
81	802	0.393580625435	1
81	802	0.393580625435	0
82	269	0.35009799806	75
82	416	0.357136118164	75
82	692	0.377643650454	743
82	839	0.399981600509	743
83	322	0.353692525797	75
83	514	0.361417003369	75
83	723	0.384184137991	743
83	869	0.406922088046	743
84	330	0.353692630497	75
84	453	0.358244710401	64
84	580	0.363254292543	64
84	730	0.384184242691	743
85	451	0.358244670579	64
85	516	0.361417068247	75
85	578	0.363254252721	64
85	871	0.406922152924	743
86	479	0.359433093238	64
86	607	0.36434267538	64
86	773	0.386780625435	75
87	611	0.36434267538	688

